*Heading
 Pullout Load Applied
** Job name: Pullout-NB221-Y1Inch Model name: Honeycomb
** Generated by: Abaqus/CAE 6.9-EF1
*Preprint, echo=NO, model=NO, history=NO, contact=NO
**
** PARTS
**
*Part, name=Panel
*Node
      1, 0.0340295471, 0.0618879497,           0.
      2, 0.0340295471,  0.054762952,           0.
      3, 0.0269045476, 0.0618879497,           0.
      4, 0.0340295471, 0.0618879497, 0.0126999998
      5, 0.0340295471,  0.054762952, 0.0126999998
      6, 0.0269045476, 0.0618879497, 0.0126999998
      7, 0.0340295471, 0.0471527241,           0.
      8, 0.0323280692, 0.0471527241,           0.
      9, 0.0306265932, 0.0500997677,           0.
     10, 0.0272236373, 0.0500997677,           0.
     11, 0.0255221613, 0.0530468151,           0.
     12, 0.0221192054, 0.0530468151,           0.
     13, 0.0204177294, 0.0559938587,           0.
     14, 0.0221192054, 0.0589409061,           0.
     15, 0.0204177294, 0.0618879497,           0.
     16, 0.0340295471, 0.0471527241, 0.0126999998
     17, 0.0204177294, 0.0618879497, 0.0126999998
     18, 0.0221192054, 0.0589409061, 0.0126999998
     19, 0.0204177294, 0.0559938587, 0.0126999998
     20, 0.0221192054, 0.0530468151, 0.0126999998
** ... 7760 like lines cut
*Element, type=C3D8
  1, 2613, 2614, 7251, 7215,  365,  366, 2554, 2553
  2, 2614, 2615, 7252, 7251,  366,  367, 2555, 2554
  3, 2615, 2616, 7253, 7252,  367,  368, 2556, 2555
  4, 2616, 2617, 7254, 7253,  368,  369, 2557, 2556
  5, 2617,  376, 2583, 7254,  369,    1,  370, 2557
  6, 7215, 7251, 7255, 7216, 2553, 2554, 2559, 2558
  7, 7251, 7252, 7256, 7255, 2554, 2555, 2560, 2559
  8, 7252, 7253, 7257, 7256, 2555, 2556, 2561, 2560
  9, 7253, 7254, 7258, 7257, 2556, 2557, 2562, 2561
 10, 7254, 2583, 2584, 7258, 2557,  370,  371, 2562
 11, 7216, 7255, 7259, 7217, 2558, 2559, 2564, 2563
 12, 7255, 7256, 7260, 7259, 2559, 2560, 2565, 2564
 13, 7256, 7257, 7261, 7260, 2560, 2561, 2566, 2565
 14, 7257, 7258, 7262, 7261, 2561, 2562, 2567, 2566
 15, 7258, 2584, 2585, 7262, 2562,  371,  372, 2567
 16, 7217, 7259, 7263, 7218, 2563, 2564, 2569, 2568
 17, 7259, 7260, 7264, 7263, 2564, 2565, 2570, 2569
 18, 7260, 7261, 7265, 7264, 2565, 2566, 2571, 2570
 19, 7261, 7262, 7266, 7265, 2566, 2567, 2572, 2571
 20, 7262, 2585, 2586, 7266, 2567,  372,  373, 2572
** ... 904 like lines cut
*Element, type=S4
925, 3033,  523,   25,  521
926,  521,   26,  522, 3033
927,  522,   27,  523, 3033
928,  524,   29,  525, 3034
929,   28,  524, 3034,  526
930,  525,   30,  526, 3034
931,  537, 3044, 3035,  536
932,   26,  527, 3045,  522
933, 3046, 3043, 3036, 3048
934, 3040,  533,   33,  534
935, 3036,  529,  530, 3037
936,   32,  532, 3039, 3038
937,  531,   32, 3038, 3037
938, 3041, 3040,  534,  535
939, 3042,   34,  536, 3035
940, 3036, 3043,  528,  529
941,   27,  522, 3044,  537
942, 3043, 3045,  527,  528
943, 3039, 3047, 3037, 3038
944, 3037,  530,   31,  531
** ... 7476 like lines cut
*Nset, nset=_PottingTop, internal
    5,    6,   16,   17,   18,   19,   20,   21,   22,   23,   24,  412,  413,  414,  415,  416
  417,  418,  419,  420,  421,  494,  495,  496,  497,  498,  499,  500,  501,  502,  503,  504
  505,  506,  507,  508,  509,  510,  511,  512,  513,  514,  515,  516,  517,  518,  519,  520
 2808, 2809, 2810, 2811, 2812, 2813, 2814, 2815, 2816, 2817, 2818, 2819, 2820, 2821, 2822, 2823
 2824, 2825, 2826, 2827, 2828, 2829, 2830, 2831, 2832, 2833, 2834, 2835, 2836, 2837, 2838, 2839
 2840, 2841, 2842, 2843, 2844, 2845, 2846, 2847, 2848, 2849, 2850, 2851, 2852, 2853, 2854, 2855
 2856, 2857, 2858, 2859, 2860, 2861, 2862, 2863, 2864, 2865, 2866, 2867, 2868, 2869, 2870, 2871
 2872, 2873, 2874, 2875, 2876, 2877, 2878, 2879, 2880, 2881, 2882, 2883, 2884, 2885, 2886, 2887
 2888, 2889, 2890, 2891, 2892, 2893, 2894, 2895, 2896, 2897
*Elset, elset=_PottingTop, internal, generate
 8195,  8307,     1
*Nset, nset=_PottingBot, internal
    2,    3,    7,    8,    9,   10,   11,   12,   13,   14,   15,  381,  382,  383,  384,  385
  386,  387,  388,  389,  390,  422,  423,  424,  425,  426,  427,  428,  429,  430,  431,  432
  433,  434,  435,  436,  437,  438,  439,  440,  441,  442,  443,  444,  445,  446,  447,  448
 2718, 2719, 2720, 2721, 2722, 2723, 2724, 2725, 2726, 2727, 2728, 2729, 2730, 2731, 2732, 2733
 2734, 2735, 2736, 2737, 2738, 2739, 2740, 2741, 2742, 2743, 2744, 2745, 2746, 2747, 2748, 2749
 2750, 2751, 2752, 2753, 2754, 2755, 2756, 2757, 2758, 2759, 2760, 2761, 2762, 2763, 2764, 2765
 2766, 2767, 2768, 2769, 2770, 2771, 2772, 2773, 2774, 2775, 2776, 2777, 2778, 2779, 2780, 2781
 2782, 2783, 2784, 2785, 2786, 2787, 2788, 2789, 2790, 2791, 2792, 2793, 2794, 2795, 2796, 2797
 2798, 2799, 2800, 2801, 2802, 2803, 2804, 2805, 2806, 2807
*Elset, elset=_PottingBot, internal, generate
 8308,  8420,     1
*Nset, nset=_PickedSet8, internal
    7,    8,    9,   10,   11,   12,   13,   14,   15,   16,   17,   18,   19,   20,   21,   22
   23,   24,   25,   26,   27,   28,   29,   30,   31,   32,   33,   34,   35,   36,   37,   38
   39,   40,   41,   42,   43,   44,   45,   46,   47,   48,   49,   50,   51,   52,   53,   54
   55,   56,   57,   58,   59,   60,   61,   62,   63,   64,   65,   66,   67,   68,   69,   70
   71,   72,   73,   74,   75,   76,   77,   78,   79,   80,   81,   82,   83,   84,   85,   86
   87,   88,   89,   90,   91,   92,   93,   94,   95,   96,   97,   98,   99,  100,  101,  102
  103,  104,  105,  106,  107,  108,  109,  110,  111,  112,  113,  114,  115,  116,  117,  118
  119,  120,  121,  122,  123,  124,  125,  126,  127,  128,  129,  130,  131,  132,  133,  134
  135,  136,  137,  138,  139,  140,  141,  142,  143,  144,  145,  146,  147,  148,  149,  150
  151,  152,  153,  154,  155,  156,  157,  158,  159,  160,  161,  162,  163,  164,  165,  166
  167,  168,  169,  170,  171,  172,  173,  174,  175,  176,  177,  178,  179,  180,  181,  182
  183,  184,  185,  186,  187,  188,  189,  190,  191,  192,  193,  194,  195,  196,  197,  198
  199,  200,  201,  202,  203,  204,  205,  206,  207,  208,  209,  210,  211,  212,  213,  214
  215,  216,  217,  218,  219,  220,  221,  222,  223,  224,  225,  226,  227,  228,  229,  230
  231,  232,  233,  234,  235,  236,  237,  238,  239,  240,  241,  242,  243,  244,  245,  246
  247,  248,  249,  250,  251,  252,  253,  254,  255,  256,  257,  258,  259,  260,  261,  262
  263,  264,  265,  266,  267,  268,  269,  270,  271,  272,  273,  274,  275,  276,  277,  278
  279,  280,  281,  282,  283,  284,  285,  286,  287,  288,  289,  290,  291,  292,  293,  294
  295,  296,  297,  298,  299,  300,  301,  302,  303,  304,  305,  306,  307,  308,  309,  310
  311,  312,  313,  314,  315,  316,  317,  318,  319,  320,  321,  322,  323,  324,  325,  326
** ... 215 like lines cut
*Elset, elset=_PickedSet8, internal
  925,  926,  927,  928,  929,  930,  931,  932,  933,  934,  935,  936,  937,  938,  939,  940
  941,  942,  943,  944,  945,  946,  947,  948,  949,  950,  951,  952,  953,  954,  955,  968
  969,  970,  971,  972,  973,  974,  975,  976,  977,  978,  979,  980,  981,  982,  983,  984
  985,  986,  987,  988,  989,  990,  991,  992,  993,  994,  995,  996,  997,  998,  999, 1000
 1013, 1014, 1021, 1022, 1023, 1024, 1025, 1026, 1027, 1028, 1029, 1030, 1031, 1032, 1033, 1034
 1035, 1036, 1037, 1038, 1039, 1040, 1041, 1042, 1043, 1044, 1045, 1046, 1047, 1048, 1049, 1050
 1051, 1052, 1053, 1054, 1055, 1056, 1057, 1058, 1059, 1060, 1061, 1062, 1063, 1064, 1065, 1066
 1067, 1068, 1069, 1070, 1071, 1072, 1073, 1074, 1075, 1076, 1077, 1078, 1079, 1080, 1099, 1100
 1101, 1102, 1103, 1104, 1111, 1112, 1113, 1114, 1115, 1116, 1117, 1118, 1119, 1120, 1121, 1122
 1123, 1124, 1125, 1126, 1127, 1128, 1129, 1130, 1131, 1132, 1133, 1134, 1135, 1136, 1137, 1138
 1139, 1140, 1141, 1142, 1143, 1144, 1145, 1146, 1147, 1148, 1161, 1162, 1163, 1164, 1171, 1172
 1173, 1174, 1175, 1176, 1177, 1178, 1179, 1180, 1181, 1182, 1183, 1184, 1185, 1186, 1187, 1188
 1189, 1190, 1191, 1192, 1193, 1194, 1195, 1196, 1197, 1198, 1199, 1200, 1201, 1202, 1203, 1204
 1205, 1206, 1207, 1208, 1209, 1210, 1211, 1212, 1213, 1214, 1215, 1216, 1217, 1218, 1219, 1220
 1221, 1222, 1223, 1224, 1225, 1226, 1227, 1228, 1229, 1230, 1231, 1232, 1233, 1234, 1235, 1236
 1237, 1238, 1239, 1240, 1241, 1242, 1243, 1244, 1245, 1246, 1247, 1248, 1261, 1262, 1263, 1264
 1265, 1266, 1267, 1268, 1269, 1270, 1271, 1272, 1273, 1274, 1275, 1276, 1277, 1278, 1279, 1280
 1281, 1282, 1283, 1284, 1285, 1286, 1299, 1300, 1301, 1302, 1303, 1304, 1305, 1306, 1307, 1308
 1309, 1310, 1311, 1312, 1313, 1314, 1315, 1316, 1317, 1318, 1319, 1320, 1321, 1322, 1323, 1324
 1325, 1326, 1327, 1340, 1341, 1342, 1343, 1344, 1345, 1346, 1347, 1348, 1349, 1350, 1351, 1352
** ... 203 like lines cut
*Nset, nset=_PickedSet9, internal
    2,    3,    5,    6,    7,    8,    9,   10,   11,   12,   13,   14,   15,   16,   17,   18
   19,   20,   21,   22,   23,   24,  381,  382,  383,  384,  385,  386,  387,  388,  389,  390
  412,  413,  414,  415,  416,  417,  418,  419,  420,  421,  422,  423,  424,  425,  426,  427
  428,  429,  430,  431,  432,  433,  434,  435,  436,  437,  438,  439,  440,  441,  442,  443
  444,  445,  446,  447,  448,  494,  495,  496,  497,  498,  499,  500,  501,  502,  503,  504
  505,  506,  507,  508,  509,  510,  511,  512,  513,  514,  515,  516,  517,  518,  519,  520
 2718, 2719, 2720, 2721, 2722, 2723, 2724, 2725, 2726, 2727, 2728, 2729, 2730, 2731, 2732, 2733
 2734, 2735, 2736, 2737, 2738, 2739, 2740, 2741, 2742, 2743, 2744, 2745, 2746, 2747, 2748, 2749
 2750, 2751, 2752, 2753, 2754, 2755, 2756, 2757, 2758, 2759, 2760, 2761, 2762, 2763, 2764, 2765
 2766, 2767, 2768, 2769, 2770, 2771, 2772, 2773, 2774, 2775, 2776, 2777, 2778, 2779, 2780, 2781
 2782, 2783, 2784, 2785, 2786, 2787, 2788, 2789, 2790, 2791, 2792, 2793, 2794, 2795, 2796, 2797
 2798, 2799, 2800, 2801, 2802, 2803, 2804, 2805, 2806, 2807, 2808, 2809, 2810, 2811, 2812, 2813
 2814, 2815, 2816, 2817, 2818, 2819, 2820, 2821, 2822, 2823, 2824, 2825, 2826, 2827, 2828, 2829
 2830, 2831, 2832, 2833, 2834, 2835, 2836, 2837, 2838, 2839, 2840, 2841, 2842, 2843, 2844, 2845
 2846, 2847, 2848, 2849, 2850, 2851, 2852, 2853, 2854, 2855, 2856, 2857, 2858, 2859, 2860, 2861
 2862, 2863, 2864, 2865, 2866, 2867, 2868, 2869, 2870, 2871, 2872, 2873, 2874, 2875, 2876, 2877
 2878, 2879, 2880, 2881, 2882, 2883, 2884, 2885, 2886, 2887, 2888, 2889, 2890, 2891, 2892, 2893
 2894, 2895, 2896, 2897
*Elset, elset=_PickedSet9, internal, generate
 8195,  8420,     1
*Nset, nset=_PickedSet10, internal
    8,   10,   12,   13,   19,   20,   22,   24,   26,   27,   29,   30,   31,   32,   33,   34
   36,   37,   38,   39,   40,   41,   42,   44,   46,   47,   48,   49,   50,   51,   52,   54
   55,   56,   57,   58,   59,   60,   61,   62,   63,   64,   65,   66,   67,   68,   69,   70
   71,   72,   73,   74,   75,   76,   77,   78,   79,   80,   81,   82,   84,   85,   86,   87
   88,   89,   90,   91,   92,   93,   95,   96,   97,   98,   99,  100,  101,  102,  103,  104
  105,  106,  107,  108,  109,  110,  111,  112,  113,  114,  115,  116,  117,  118,  119,  120
  121,  122,  123,  124,  125,  126,  127,  128,  129,  130,  131,  132,  133,  134,  135,  137
  138,  139,  140,  141,  142,  143,  144,  145,  146,  147,  148,  149,  150,  151,  152,  154
  155,  156,  157,  158,  159,  160,  161,  162,  163,  164,  165,  166,  167,  168,  169,  170
  171,  172,  173,  174,  175,  176,  177,  178,  179,  180,  181,  182,  183,  184,  185,  186
  187,  188,  189,  190,  191,  192,  193,  194,  195,  196,  197,  198,  199,  200,  201,  202
  203,  204,  205,  206,  207,  208,  209,  210,  211,  212,  213,  215,  216,  217,  218,  219
  220,  221,  222,  223,  224,  225,  226,  227,  228,  229,  230,  231,  232,  233,  234,  235
  236,  237,  238,  239,  240,  241,  242,  243,  244,  245,  246,  247,  248,  249,  250,  251
  252,  253,  254,  255,  256,  257,  258,  259,  260,  261,  262,  263,  264,  265,  266,  267
  268,  269,  270,  271,  272,  273,  274,  275,  276,  277,  278,  279,  280,  281,  282,  283
  284,  285,  286,  287,  288,  289,  290,  291,  292,  293,  294,  295,  296,  297,  298,  299
  300,  301,  302,  303,  304,  305,  306,  307,  308,  309,  310,  311,  312,  313,  314,  315
  316,  317,  318,  319,  320,  321,  322,  323,  324,  325,  326,  327,  328,  329,  330,  331
  332,  333,  334,  335,  336,  337,  338,  339,  340,  341,  342,  343,  344,  345,  346,  347
** ... 229 like lines cut
*Elset, elset=_PickedSet10, internal
  956,  957,  958,  959,  960,  961,  962,  963,  964,  965,  966,  967, 1001, 1002, 1003, 1004
 1005, 1006, 1007, 1008, 1009, 1010, 1011, 1012, 1015, 1016, 1017, 1018, 1019, 1020, 1081, 1082
 1083, 1084, 1085, 1086, 1087, 1088, 1089, 1090, 1091, 1092, 1093, 1094, 1095, 1096, 1097, 1098
 1105, 1106, 1107, 1108, 1109, 1110, 1149, 1150, 1151, 1152, 1153, 1154, 1155, 1156, 1157, 1158
 1159, 1160, 1165, 1166, 1167, 1168, 1169, 1170, 1249, 1250, 1251, 1252, 1253, 1254, 1255, 1256
 1257, 1258, 1259, 1260, 1287, 1288, 1289, 1290, 1291, 1292, 1293, 1294, 1295, 1296, 1297, 1298
 1328, 1329, 1330, 1331, 1332, 1333, 1334, 1335, 1336, 1337, 1338, 1339, 1365, 1366, 1367, 1368
 1369, 1370, 1371, 1372, 1373, 1374, 1375, 1376, 1377, 1378, 1379, 1380, 1381, 1382, 1412, 1413
 1414, 1415, 1416, 1417, 1418, 1419, 1420, 1421, 1422, 1423, 1449, 1450, 1451, 1452, 1453, 1454
 1455, 1456, 1457, 1458, 1459, 1460, 1487, 1488, 1489, 1490, 1491, 1492, 1493, 1494, 1495, 1496
 1497, 1498, 1537, 1538, 1539, 1540, 1541, 1542, 1543, 1544, 1545, 1546, 1547, 1548, 1575, 1576
 1577, 1578, 1579, 1580, 1581, 1582, 1583, 1584, 1585, 1586, 1599, 1600, 1601, 1602, 1603, 1604
 1605, 1606, 1607, 1608, 1609, 1610, 1611, 1612, 1613, 1614, 1615, 1616, 1617, 1618, 1619, 1620
 1621, 1622, 1655, 1656, 1657, 1658, 1659, 1660, 1661, 1662, 1663, 1664, 1665, 1666, 1709, 1710
 1711, 1712, 1713, 1714, 1715, 1716, 1717, 1718, 1719, 1720, 1749, 1750, 1751, 1752, 1753, 1754
 1755, 1756, 1757, 1758, 1759, 1760, 1789, 1790, 1791, 1792, 1793, 1794, 1795, 1796, 1797, 1798
 1799, 1800, 1829, 1830, 1831, 1832, 1833, 1834, 1835, 1836, 1837, 1838, 1839, 1840, 1869, 1870
 1871, 1872, 1873, 1874, 1875, 1876, 1877, 1878, 1879, 1880, 1907, 1908, 1909, 1910, 1911, 1912
 1913, 1914, 1915, 1916, 1917, 1918, 1945, 1946, 1947, 1948, 1949, 1950, 1951, 1952, 1953, 1954
 1955, 1956, 3369, 3370, 3371, 3372, 3373, 3374, 3375, 3376, 3377, 3378, 3379, 3380, 3381, 3382
** ... 213 like lines cut
*Nset, nset=_PickedSet11, internal
    2,    3,    5,    6,    7,    8,    9,   10,   11,   12,   13,   14,   15,   16,   17,   18
   19,   20,   21,   22,   23,   24,  381,  382,  383,  384,  385,  386,  387,  388,  389,  390
  391,  392,  393,  394,  395,  396,  397,  398,  399,  400,  412,  413,  414,  415,  416,  417
  418,  419,  420,  421,  422,  423,  424,  425,  426,  427,  428,  429,  430,  431,  432,  433
  434,  435,  436,  437,  438,  439,  440,  441,  442,  443,  444,  445,  446,  447,  448,  449
  450,  451,  452,  453,  454,  455,  456,  457,  458,  459,  460,  461,  462,  463,  464,  465
  466,  467,  468,  469,  470,  471,  472,  473,  474,  475,  476,  477,  478,  479,  480,  481
  482,  483,  484,  485,  486,  487,  488,  489,  490,  491,  492,  493,  494,  495,  496,  497
  498,  499,  500,  501,  502,  503,  504,  505,  506,  507,  508,  509,  510,  511,  512,  513
  514,  515,  516,  517,  518,  519,  520, 2638, 2639, 2640, 2641, 2642, 2643, 2644, 2645, 2646
 2647, 2648, 2649, 2650, 2651, 2652, 2653, 2654, 2655, 2656, 2657, 2658, 2659, 2660, 2661, 2662
 2663, 2664, 2665, 2666, 2667, 2668, 2669, 2670, 2671, 2672, 2673, 2674, 2675, 2676, 2677, 2678
 2679, 2680, 2681, 2682, 2683, 2684, 2685, 2686, 2687, 2718, 2719, 2720, 2721, 2722, 2723, 2724
 2725, 2726, 2727, 2728, 2729, 2730, 2731, 2732, 2733, 2734, 2735, 2736, 2737, 2738, 2739, 2740
 2741, 2742, 2743, 2744, 2745, 2746, 2747, 2748, 2749, 2750, 2751, 2752, 2753, 2754, 2755, 2756
 2757, 2758, 2759, 2760, 2761, 2762, 2763, 2764, 2765, 2766, 2767, 2768, 2769, 2770, 2771, 2772
 2773, 2774, 2775, 2776, 2777, 2778, 2779, 2780, 2781, 2782, 2783, 2784, 2785, 2786, 2787, 2788
 2789, 2790, 2791, 2792, 2793, 2794, 2795, 2796, 2797, 2798, 2799, 2800, 2801, 2802, 2803, 2804
 2805, 2806, 2807, 2808, 2809, 2810, 2811, 2812, 2813, 2814, 2815, 2816, 2817, 2818, 2819, 2820
 2821, 2822, 2823, 2824, 2825, 2826, 2827, 2828, 2829, 2830, 2831, 2832, 2833, 2834, 2835, 2836
** ... 41 like lines cut
*Elset, elset=_PickedSet11, internal, generate
 247,  924,    1
*Nset, nset=_PickedSet12, internal
    1,    2,    3,    4,    5,    6,  365,  366,  367,  368,  369,  370,  371,  372,  373,  374
  375,  376,  377,  378,  379,  380,  381,  382,  383,  384,  385,  386,  387,  388,  389,  390
  391,  392,  393,  394,  395,  396,  397,  398,  399,  400,  401,  402,  403,  404,  405,  406
  407,  408,  409,  410,  411,  412,  413,  414,  415,  416,  417,  418,  419,  420,  421, 2553
 2554, 2555, 2556, 2557, 2558, 2559, 2560, 2561, 2562, 2563, 2564, 2565, 2566, 2567, 2568, 2569
 2570, 2571, 2572, 2573, 2574, 2575, 2576, 2577, 2578, 2579, 2580, 2581, 2582, 2583, 2584, 2585
 2586, 2587, 2588, 2589, 2590, 2591, 2592, 2593, 2594, 2595, 2596, 2597, 2598, 2599, 2600, 2601
 2602, 2603, 2604, 2605, 2606, 2607, 2608, 2609, 2610, 2611, 2612, 2613, 2614, 2615, 2616, 2617
 2618, 2619, 2620, 2621, 2622, 2623, 2624, 2625, 2626, 2627, 2628, 2629, 2630, 2631, 2632, 2633
 2634, 2635, 2636, 2637, 2638, 2639, 2640, 2641, 2642, 2643, 2644, 2645, 2646, 2647, 2648, 2649
 2650, 2651, 2652, 2653, 2654, 2655, 2656, 2657, 2658, 2659, 2660, 2661, 2662, 2663, 2664, 2665
 2666, 2667, 2668, 2669, 2670, 2671, 2672, 2673, 2674, 2675, 2676, 2677, 2678, 2679, 2680, 2681
 2682, 2683, 2684, 2685, 2686, 2687, 2688, 2689, 2690, 2691, 2692, 2693, 2694, 2695, 2696, 2697
 2698, 2699, 2700, 2701, 2702, 2703, 2704, 2705, 2706, 2707, 2708, 2709, 2710, 2711, 2712, 2713
 2714, 2715, 2716, 2717, 7181, 7182, 7183, 7184, 7185, 7186, 7187, 7188, 7189, 7190, 7191, 7192
 7193, 7194, 7195, 7196, 7197, 7198, 7199, 7200, 7201, 7202, 7203, 7204, 7205, 7206, 7207, 7208
 7209, 7210, 7211, 7212, 7213, 7214, 7215, 7216, 7217, 7218, 7219, 7220, 7221, 7222, 7223, 7224
 7225, 7226, 7227, 7228, 7229, 7230, 7231, 7232, 7233, 7234, 7235, 7236, 7237, 7238, 7239, 7240
 7241, 7242, 7243, 7244, 7245, 7246, 7247, 7248, 7249, 7250, 7251, 7252, 7253, 7254, 7255, 7256
 7257, 7258, 7259, 7260, 7261, 7262, 7263, 7264, 7265, 7266, 7267, 7268, 7269, 7270, 7271, 7272
** ... 4 like lines cut
*Elset, elset=_PickedSet12, internal, generate
   1,  246,    1
*Nset, nset=_PickedSet15, internal
   16,   17,   18,   19,   20,   21,   22,   23,   24,   28,   29,   30,   39,   40,   41,   42
   45,   46,   47,   48,   53,   54,   57,   58,   59,   60,   63,   65,   66,   67,   74,   75
   76,   77,   78,   79,   80,   81,   82,   91,   92,   94,   95,   96,   97,  101,  102,  104
  105,  106,  107,  109,  110,  116,  117,  119,  123,  124,  126,  127,  131,  132,  134,  135
  143,  144,  146,  147,  150,  151,  153,  154,  155,  156,  157,  158,  159,  161,  162,  167
  168,  169,  173,  174,  175,  179,  180,  181,  185,  186,  187,  191,  192,  193,  197,  198
  199,  201,  202,  203,  204,  205,  206,  207,  208,  209,  210,  211,  212,  213,  214,  215
  216,  217,  218,  219,  220,  221,  222,  223,  224,  225,  226,  227,  228,  229,  230,  231
  232,  233,  234,  235,  236,  237,  238,  239,  240,  241,  242,  243,  244,  245,  246,  247
  248,  249,  250,  251,  252,  253,  254,  255,  256,  257,  258,  259,  260,  261,  262,  263
  264,  265,  266,  267,  268,  269,  270,  271,  272,  273,  274,  275,  276,  277,  278,  279
  280,  281,  282,  506,  507,  508,  509,  510,  511,  512,  513,  514,  515,  516,  517,  518
  519,  520,  524,  525,  526,  550,  551,  552,  553,  554,  555,  556,  557,  558,  559,  560
  576,  577,  600,  601,  602,  603,  604,  610,  611,  612,  613,  614,  615,  616,  617,  618
  619,  620,  621,  633,  634,  642,  643,  644,  645,  646,  682,  688,  689,  690,  691,  692
  693,  704,  705,  706,  707,  708,  709,  710,  711,  712,  713,  714,  715,  716,  717,  718
  719,  720,  721,  722,  723,  724,  725,  752,  759,  760,  761,  762,  763,  764,  765,  766
  767,  768,  769,  785,  792,  793,  794,  795,  796,  797,  798,  799,  800,  801,  815,  822
  823,  824,  825,  826,  827,  828,  829,  830,  831,  844,  845,  846,  847,  848,  849,  850
  851,  867,  874,  875,  876,  877,  878,  879,  880,  896,  903,  904,  905,  906,  907,  908
** ... 98 like lines cut
*Elset, elset=_PickedSet15, internal
  928,  929,  930,  970,  971,  972,  973,  974,  975,  976,  977,  978,  979,  980,  981,  982
  983,  984,  985,  986,  987,  988,  989,  990,  991,  992,  993,  994, 1013, 1014, 1043, 1044
 1045, 1046, 1047, 1048, 1055, 1056, 1057, 1058, 1059, 1060, 1061, 1062, 1063, 1064, 1065, 1066
 1067, 1068, 1069, 1070, 1071, 1072, 1073, 1074, 1075, 1076, 1099, 1100, 1101, 1102, 1103, 1104
 1161, 1162, 1163, 1164, 1171, 1172, 1173, 1174, 1175, 1176, 1177, 1178, 1179, 1180, 1181, 1182
 1183, 1184, 1185, 1186, 1187, 1188, 1189, 1190, 1191, 1192, 1193, 1194, 1195, 1196, 1197, 1198
 1199, 1200, 1201, 1202, 1203, 1204, 1205, 1206, 1207, 1208, 1209, 1210, 1211, 1212, 1213, 1214
 1215, 1216, 1217, 1218, 1219, 1220, 1221, 1222, 1261, 1262, 1263, 1264, 1265, 1266, 1267, 1268
 1269, 1270, 1271, 1272, 1273, 1299, 1300, 1301, 1302, 1303, 1304, 1305, 1306, 1307, 1308, 1309
 1310, 1311, 1340, 1341, 1342, 1343, 1344, 1345, 1346, 1347, 1348, 1349, 1350, 1351, 1352, 1383
 1384, 1385, 1386, 1387, 1388, 1389, 1390, 1391, 1392, 1393, 1394, 1395, 1396, 1397, 1398, 1424
 1425, 1426, 1427, 1428, 1429, 1430, 1431, 1432, 1433, 1434, 1435, 1461, 1462, 1463, 1464, 1465
 1466, 1467, 1468, 1469, 1470, 1471, 1472, 1473, 1499, 1500, 1501, 1502, 1503, 1504, 1505, 1506
 1507, 1508, 1509, 1510, 1511, 1549, 1550, 1551, 1552, 1553, 1554, 1555, 1556, 1557, 1558, 1559
 1560, 1561, 1587, 1588, 1589, 1590, 1591, 1592, 1593, 1594, 1595, 1596, 1597, 1598, 1623, 1624
 1625, 1626, 1627, 1628, 1629, 1630, 1631, 1632, 1633, 1634, 1635, 1636, 1637, 1638, 1639, 1640
 1641, 1642, 1643, 1644, 1645, 1646, 1647, 1648, 1649, 1650, 1651, 1652, 1653, 1654, 1681, 1682
 1683, 1684, 1685, 1686, 1687, 1688, 1689, 1690, 1691, 1692, 1693, 1694, 1721, 1722, 1723, 1724
 1725, 1726, 1727, 1728, 1729, 1730, 1731, 1732, 1733, 1734, 1761, 1762, 1763, 1764, 1765, 1766
 1767, 1768, 1769, 1770, 1771, 1772, 1773, 1774, 1801, 1802, 1803, 1804, 1805, 1806, 1807, 1808
** ... 92 like lines cut
*Nset, nset=_PickedSet16, internal
    5,    6,   16,   17,   18,   19,   20,   21,   22,   23,   24,  412,  413,  414,  415,  416
  417,  418,  419,  420,  421,  494,  495,  496,  497,  498,  499,  500,  501,  502,  503,  504
  505,  506,  507,  508,  509,  510,  511,  512,  513,  514,  515,  516,  517,  518,  519,  520
 2808, 2809, 2810, 2811, 2812, 2813, 2814, 2815, 2816, 2817, 2818, 2819, 2820, 2821, 2822, 2823
 2824, 2825, 2826, 2827, 2828, 2829, 2830, 2831, 2832, 2833, 2834, 2835, 2836, 2837, 2838, 2839
 2840, 2841, 2842, 2843, 2844, 2845, 2846, 2847, 2848, 2849, 2850, 2851, 2852, 2853, 2854, 2855
 2856, 2857, 2858, 2859, 2860, 2861, 2862, 2863, 2864, 2865, 2866, 2867, 2868, 2869, 2870, 2871
 2872, 2873, 2874, 2875, 2876, 2877, 2878, 2879, 2880, 2881, 2882, 2883, 2884, 2885, 2886, 2887
 2888, 2889, 2890, 2891, 2892, 2893, 2894, 2895, 2896, 2897
*Elset, elset=_PickedSet16, internal, generate
 8195,  8307,     1
*Nset, nset=_PickedSet17, internal
    7,    8,    9,   10,   11,   12,   13,   14,   15,   25,   26,   27,   31,   32,   33,   34
   35,   36,   37,   38,   43,   44,   49,   50,   51,   52,   55,   56,   61,   62,   64,   68
   69,   70,   71,   72,   73,   83,   84,   85,   86,   87,   88,   89,   90,   93,   98,   99
  100,  103,  108,  111,  112,  113,  114,  115,  118,  120,  121,  122,  125,  128,  129,  130
  133,  136,  137,  138,  139,  140,  141,  142,  145,  148,  149,  152,  160,  163,  164,  165
  166,  170,  171,  172,  176,  177,  178,  182,  183,  184,  188,  189,  190,  194,  195,  196
  200,  283,  284,  285,  286,  287,  288,  289,  290,  291,  292,  293,  294,  295,  296,  297
  298,  299,  300,  301,  302,  303,  304,  305,  306,  307,  308,  309,  310,  311,  312,  313
  314,  315,  316,  317,  318,  319,  320,  321,  322,  323,  324,  325,  326,  327,  328,  329
  330,  331,  332,  333,  334,  335,  336,  337,  338,  339,  340,  341,  342,  343,  344,  345
  346,  347,  348,  349,  350,  351,  352,  353,  354,  355,  356,  357,  358,  359,  360,  361
  362,  363,  364,  429,  430,  431,  432,  433,  434,  435,  436,  437,  438,  439,  440,  441
  442,  443,  521,  522,  523,  527,  528,  529,  530,  531,  532,  533,  534,  535,  536,  537
  548,  549,  561,  562,  563,  564,  565,  588,  589,  590,  591,  592,  593,  594,  595,  596
  597,  598,  599,  605,  606,  607,  608,  609,  622,  623,  624,  625,  626,  627,  640,  641
  657,  658,  659,  660,  661,  662,  663,  664,  665,  666,  667,  668,  669,  670,  671,  672
  673,  674,  675,  676,  726,  727,  728,  729,  730,  731,  732,  733,  734,  735,  736,  737
  738,  739,  740,  741,  742,  743,  744,  745,  746,  758,  770,  771,  772,  773,  774,  775
  776,  777,  778,  779,  791,  802,  803,  804,  805,  806,  807,  808,  809,  821,  832,  833
  834,  835,  836,  837,  838,  852,  853,  854,  855,  856,  857,  858,  859,  860,  861,  873
** ... 98 like lines cut
*Elset, elset=_PickedSet17, internal
  925,  926,  927,  931,  932,  933,  934,  935,  936,  937,  938,  939,  940,  941,  942,  943
  944,  945,  946,  947,  948,  949,  950,  951,  952,  953,  954,  955,  968,  969,  995,  996
  997,  998,  999, 1000, 1021, 1022, 1023, 1024, 1025, 1026, 1027, 1028, 1029, 1030, 1031, 1032
 1033, 1034, 1035, 1036, 1037, 1038, 1039, 1040, 1041, 1042, 1049, 1050, 1051, 1052, 1053, 1054
 1077, 1078, 1079, 1080, 1111, 1112, 1113, 1114, 1115, 1116, 1117, 1118, 1119, 1120, 1121, 1122
 1123, 1124, 1125, 1126, 1127, 1128, 1129, 1130, 1131, 1132, 1133, 1134, 1135, 1136, 1137, 1138
 1139, 1140, 1141, 1142, 1143, 1144, 1145, 1146, 1147, 1148, 1223, 1224, 1225, 1226, 1227, 1228
 1229, 1230, 1231, 1232, 1233, 1234, 1235, 1236, 1237, 1238, 1239, 1240, 1241, 1242, 1243, 1244
 1245, 1246, 1247, 1248, 1274, 1275, 1276, 1277, 1278, 1279, 1280, 1281, 1282, 1283, 1284, 1285
 1286, 1312, 1313, 1314, 1315, 1316, 1317, 1318, 1319, 1320, 1321, 1322, 1323, 1324, 1325, 1326
 1327, 1353, 1354, 1355, 1356, 1357, 1358, 1359, 1360, 1361, 1362, 1363, 1364, 1399, 1400, 1401
 1402, 1403, 1404, 1405, 1406, 1407, 1408, 1409, 1410, 1411, 1436, 1437, 1438, 1439, 1440, 1441
 1442, 1443, 1444, 1445, 1446, 1447, 1448, 1474, 1475, 1476, 1477, 1478, 1479, 1480, 1481, 1482
 1483, 1484, 1485, 1486, 1512, 1513, 1514, 1515, 1516, 1517, 1518, 1519, 1520, 1521, 1522, 1523
 1524, 1525, 1526, 1527, 1528, 1529, 1530, 1531, 1532, 1533, 1534, 1535, 1536, 1562, 1563, 1564
 1565, 1566, 1567, 1568, 1569, 1570, 1571, 1572, 1573, 1574, 1667, 1668, 1669, 1670, 1671, 1672
 1673, 1674, 1675, 1676, 1677, 1678, 1679, 1680, 1695, 1696, 1697, 1698, 1699, 1700, 1701, 1702
 1703, 1704, 1705, 1706, 1707, 1708, 1735, 1736, 1737, 1738, 1739, 1740, 1741, 1742, 1743, 1744
 1745, 1746, 1747, 1748, 1775, 1776, 1777, 1778, 1779, 1780, 1781, 1782, 1783, 1784, 1785, 1786
 1787, 1788, 1815, 1816, 1817, 1818, 1819, 1820, 1821, 1822, 1823, 1824, 1825, 1826, 1827, 1828
** ... 92 like lines cut
*Nset, nset=_PickedSet18, internal
    2,    3,    7,    8,    9,   10,   11,   12,   13,   14,   15,  381,  382,  383,  384,  385
  386,  387,  388,  389,  390,  422,  423,  424,  425,  426,  427,  428,  429,  430,  431,  432
  433,  434,  435,  436,  437,  438,  439,  440,  441,  442,  443,  444,  445,  446,  447,  448
 2718, 2719, 2720, 2721, 2722, 2723, 2724, 2725, 2726, 2727, 2728, 2729, 2730, 2731, 2732, 2733
 2734, 2735, 2736, 2737, 2738, 2739, 2740, 2741, 2742, 2743, 2744, 2745, 2746, 2747, 2748, 2749
 2750, 2751, 2752, 2753, 2754, 2755, 2756, 2757, 2758, 2759, 2760, 2761, 2762, 2763, 2764, 2765
 2766, 2767, 2768, 2769, 2770, 2771, 2772, 2773, 2774, 2775, 2776, 2777, 2778, 2779, 2780, 2781
 2782, 2783, 2784, 2785, 2786, 2787, 2788, 2789, 2790, 2791, 2792, 2793, 2794, 2795, 2796, 2797
 2798, 2799, 2800, 2801, 2802, 2803, 2804, 2805, 2806, 2807
*Elset, elset=_PickedSet18, internal, generate
 8308,  8420,     1
*Nset, nset=Insert-Top
    4,    5,    6,  401,  402,  403,  404,  405,  406,  407,  408,  409,  410,  411,  412,  413
  414,  415,  416,  417,  418,  419,  420,  421, 2688, 2689, 2690, 2691, 2692, 2693, 2694, 2695
 2696, 2697, 2698, 2699, 2700, 2701, 2702, 2703, 2704, 2705, 2706, 2707, 2708, 2709, 2710, 2711
 2712, 2713, 2714, 2715, 2716, 2717
*Elset, elset=Insert-Top
 126, 129, 132, 135, 138, 141, 144, 147, 150, 153, 156, 159, 162, 165, 168, 171
 174, 177, 180, 183, 186, 189, 192, 195, 198, 201, 204, 207, 210, 213, 214, 217
 220, 223, 226, 229, 230, 231, 232, 233, 234
** Section: secSteel
*Solid Section, elset=_PickedSet12, material=Steel
,
** Section: secPotting
*Solid Section, elset=_PickedSet11, material=Potting
,
*Orientation, name=Ori-3
          1.,           0.,           0.,           0.,           1.,           0.
3, 0.
** Region: (secLaminate:Picked), (Material Orientation:Picked)
*Elset, elset=_I3, internal
  925,  926,  927,  931,  932,  933,  934,  935,  936,  937,  938,  939,  940,  941,  942,  943
  944,  945,  946,  947,  948,  949,  950,  951,  952,  953,  954,  955,  968,  969,  995,  996
  997,  998,  999, 1000, 1021, 1022, 1023, 1024, 1025, 1026, 1027, 1028, 1029, 1030, 1031, 1032
 1033, 1034, 1035, 1036, 1037, 1038, 1039, 1040, 1041, 1042, 1049, 1050, 1051, 1052, 1053, 1054
 1077, 1078, 1079, 1080, 1111, 1112, 1113, 1114, 1115, 1116, 1117, 1118, 1119, 1120, 1121, 1122
 1123, 1124, 1125, 1126, 1127, 1128, 1129, 1130, 1131, 1132, 1133, 1134, 1135, 1136, 1137, 1138
 1139, 1140, 1141, 1142, 1143, 1144, 1145, 1146, 1147, 1148, 1223, 1224, 1225, 1226, 1227, 1228
 1229, 1230, 1231, 1232, 1233, 1234, 1235, 1236, 1237, 1238, 1239, 1240, 1241, 1242, 1243, 1244
 1245, 1246, 1247, 1248, 1274, 1275, 1276, 1277, 1278, 1279, 1280, 1281, 1282, 1283, 1284, 1285
 1286, 1312, 1313, 1314, 1315, 1316, 1317, 1318, 1319, 1320, 1321, 1322, 1323, 1324, 1325, 1326
 1327, 1353, 1354, 1355, 1356, 1357, 1358, 1359, 1360, 1361, 1362, 1363, 1364, 1399, 1400, 1401
 1402, 1403, 1404, 1405, 1406, 1407, 1408, 1409, 1410, 1411, 1436, 1437, 1438, 1439, 1440, 1441
 1442, 1443, 1444, 1445, 1446, 1447, 1448, 1474, 1475, 1476, 1477, 1478, 1479, 1480, 1481, 1482
 1483, 1484, 1485, 1486, 1512, 1513, 1514, 1515, 1516, 1517, 1518, 1519, 1520, 1521, 1522, 1523
 1524, 1525, 1526, 1527, 1528, 1529, 1530, 1531, 1532, 1533, 1534, 1535, 1536, 1562, 1563, 1564
 1565, 1566, 1567, 1568, 1569, 1570, 1571, 1572, 1573, 1574, 1667, 1668, 1669, 1670, 1671, 1672
 1673, 1674, 1675, 1676, 1677, 1678, 1679, 1680, 1695, 1696, 1697, 1698, 1699, 1700, 1701, 1702
 1703, 1704, 1705, 1706, 1707, 1708, 1735, 1736, 1737, 1738, 1739, 1740, 1741, 1742, 1743, 1744
 1745, 1746, 1747, 1748, 1775, 1776, 1777, 1778, 1779, 1780, 1781, 1782, 1783, 1784, 1785, 1786
 1787, 1788, 1815, 1816, 1817, 1818, 1819, 1820, 1821, 1822, 1823, 1824, 1825, 1826, 1827, 1828
** ... 92 like lines cut
** Section: secLaminate
*Shell Section, elset=_I3, material=Laminate, orientation=Ori-3
0.000457, 5
*Orientation, name=Ori-1
          1.,           0.,           0.,           0.,           1.,           0.
3, 0.
** Region: (secLaminate:Picked), (Material Orientation:Picked)
*Elset, elset=_I4, internal
  928,  929,  930,  970,  971,  972,  973,  974,  975,  976,  977,  978,  979,  980,  981,  982
  983,  984,  985,  986,  987,  988,  989,  990,  991,  992,  993,  994, 1013, 1014, 1043, 1044
 1045, 1046, 1047, 1048, 1055, 1056, 1057, 1058, 1059, 1060, 1061, 1062, 1063, 1064, 1065, 1066
 1067, 1068, 1069, 1070, 1071, 1072, 1073, 1074, 1075, 1076, 1099, 1100, 1101, 1102, 1103, 1104
 1161, 1162, 1163, 1164, 1171, 1172, 1173, 1174, 1175, 1176, 1177, 1178, 1179, 1180, 1181, 1182
 1183, 1184, 1185, 1186, 1187, 1188, 1189, 1190, 1191, 1192, 1193, 1194, 1195, 1196, 1197, 1198
 1199, 1200, 1201, 1202, 1203, 1204, 1205, 1206, 1207, 1208, 1209, 1210, 1211, 1212, 1213, 1214
 1215, 1216, 1217, 1218, 1219, 1220, 1221, 1222, 1261, 1262, 1263, 1264, 1265, 1266, 1267, 1268
 1269, 1270, 1271, 1272, 1273, 1299, 1300, 1301, 1302, 1303, 1304, 1305, 1306, 1307, 1308, 1309
 1310, 1311, 1340, 1341, 1342, 1343, 1344, 1345, 1346, 1347, 1348, 1349, 1350, 1351, 1352, 1383
 1384, 1385, 1386, 1387, 1388, 1389, 1390, 1391, 1392, 1393, 1394, 1395, 1396, 1397, 1398, 1424
 1425, 1426, 1427, 1428, 1429, 1430, 1431, 1432, 1433, 1434, 1435, 1461, 1462, 1463, 1464, 1465
 1466, 1467, 1468, 1469, 1470, 1471, 1472, 1473, 1499, 1500, 1501, 1502, 1503, 1504, 1505, 1506
 1507, 1508, 1509, 1510, 1511, 1549, 1550, 1551, 1552, 1553, 1554, 1555, 1556, 1557, 1558, 1559
 1560, 1561, 1587, 1588, 1589, 1590, 1591, 1592, 1593, 1594, 1595, 1596, 1597, 1598, 1623, 1624
 1625, 1626, 1627, 1628, 1629, 1630, 1631, 1632, 1633, 1634, 1635, 1636, 1637, 1638, 1639, 1640
 1641, 1642, 1643, 1644, 1645, 1646, 1647, 1648, 1649, 1650, 1651, 1652, 1653, 1654, 1681, 1682
 1683, 1684, 1685, 1686, 1687, 1688, 1689, 1690, 1691, 1692, 1693, 1694, 1721, 1722, 1723, 1724
 1725, 1726, 1727, 1728, 1729, 1730, 1731, 1732, 1733, 1734, 1761, 1762, 1763, 1764, 1765, 1766
 1767, 1768, 1769, 1770, 1771, 1772, 1773, 1774, 1801, 1802, 1803, 1804, 1805, 1806, 1807, 1808
** ... 92 like lines cut
** Section: secLaminate
*Shell Section, elset=_I4, material=Laminate, orientation=Ori-1
0.000457, 5
** Section: secHoneycomb
*Shell Section, elset=_PickedSet10, material=Honeycomb
0.00015, 5
*Orientation, name=Ori-2
          1.,           0.,           0.,           0.,           1.,           0.
3, 0.
** Region: (secLaminate:Picked), (Material Orientation:Picked)
*Elset, elset=_I6, internal, generate
 8195,  8307,     1
** Section: secLaminate
*Shell Section, elset=_I6, material=Laminate, orientation=Ori-2
0.000457, 5
*Orientation, name=Ori-4
          1.,           0.,           0.,           0.,          -1.,           0.
3, 0.
** Region: (secLaminate:Picked), (Material Orientation:Picked)
*Elset, elset=_I7, internal, generate
 8308,  8420,     1
** Section: secLaminate
*Shell Section, elset=_I7, material=Laminate, orientation=Ori-4
0.000457, 5
*End Part
**  
**
** ASSEMBLY
**
*Assembly, name=Assembly
**  
*Instance, name=instPanel, part=Panel
*End Instance
**  
*Nset, nset=_PickedSet50, internal, instance=instPanel
   28,   29,   30,   39,   40,   41,   42,   45,   46,   47,   48,   53,   54,   57,   58,   59
   60,   65,   67,   74,   76,   77,   80,   81,   82,   91,   92,   94,  101,  102,  106,  107
  116,  117,  119,  123,  124,  126,  127,  131,  132,  134,  135,  143,  144,  146,  147,  150
  151,  153,  154,  155,  156,  157,  158,  159,  161,  162,  167,  168,  169,  173,  174,  175
  179,  180,  181,  185,  186,  187,  191,  192,  193,  202,  203,  204,  205,  206,  207,  208
  209,  210,  211,  212,  213,  214,  215,  216,  217,  218,  219,  220,  221,  222,  223,  224
  225,  226,  227,  228,  229,  230,  231,  232,  233,  234,  235,  236,  237,  238,  239,  240
  241,  242,  243,  244,  245,  246,  247,  248,  249,  250,  251,  252,  253,  254,  255,  256
  258,  259,  260,  266,  267,  268,  275,  276,  277,  280,  281,  524,  525,  526,  550,  551
  552,  553,  554,  555,  556,  557,  558,  559,  560,  576,  577,  600,  601,  602,  603,  604
  610,  611,  612,  613,  614,  615,  616,  617,  618,  619,  620,  621,  642,  643,  688,  689
  690,  691,  692,  693,  704,  705,  706,  707,  714,  715,  716,  717,  718,  719,  720,  721
  722,  723,  724,  725,  752,  759,  760,  761,  762,  763,  785,  792,  793,  794,  795,  796
  815,  822,  823,  824,  825,  826,  844,  845,  846,  847,  848,  849,  867,  874,  875,  876
  877,  878,  879,  880,  896,  903,  904,  905,  906,  907,  908,  909,  910,  911,  912,  928
  935,  936,  937,  938,  939,  940,  941,  942,  943,  944,  970,  977,  978,  979,  980,  981
  982,  983,  984,  985,  986, 1002, 1009, 1010, 1011, 1012, 1013, 1014, 1015, 1016, 1017, 1018
 1029, 1030, 1031, 1032, 1033, 1034, 1035, 1036, 1037, 1038, 1039, 1040, 1041, 1042, 1043, 1044
 1045, 1046, 1047, 1053, 1070, 1071, 1072, 1073, 1074, 1075, 1076, 1077, 1078, 1079, 1100, 1101
 1102, 1103, 1104, 1105, 1106, 1107, 1108, 1109, 1130, 1131, 1132, 1133, 1134, 1135, 1136, 1137
** ... 70 like lines cut
*Elset, elset=_PickedSet50, internal, instance=instPanel
  928,  929,  930,  970,  971,  972,  973,  974,  975,  976,  977,  978,  979,  980,  981,  982
  983,  984,  985,  986,  987,  988,  989,  990,  991,  992,  993,  994, 1013, 1014, 1043, 1044
 1045, 1046, 1047, 1048, 1055, 1056, 1057, 1058, 1059, 1060, 1061, 1062, 1063, 1064, 1065, 1066
 1067, 1068, 1069, 1070, 1071, 1072, 1073, 1074, 1075, 1076, 1161, 1162, 1163, 1164, 1197, 1198
 1199, 1200, 1201, 1202, 1203, 1204, 1205, 1206, 1207, 1208, 1209, 1210, 1211, 1212, 1213, 1214
 1215, 1216, 1217, 1218, 1219, 1220, 1221, 1222, 1424, 1425, 1426, 1427, 1428, 1429, 1430, 1431
 1432, 1433, 1434, 1435, 1461, 1462, 1463, 1464, 1465, 1466, 1467, 1468, 1469, 1470, 1471, 1472
 1473, 1499, 1500, 1501, 1502, 1503, 1504, 1505, 1506, 1507, 1508, 1509, 1510, 1511, 1549, 1550
 1551, 1552, 1553, 1554, 1555, 1556, 1557, 1558, 1559, 1560, 1561, 1587, 1588, 1589, 1590, 1591
 1592, 1593, 1594, 1595, 1596, 1597, 1598, 1623, 1624, 1625, 1626, 1627, 1628, 1629, 1630, 1631
 1632, 1633, 1634, 1635, 1636, 1637, 1638, 1639, 1640, 1641, 1642, 1643, 1644, 1645, 1646, 1647
 1648, 1649, 1650, 1651, 1652, 1653, 1654, 1681, 1682, 1683, 1684, 1685, 1686, 1687, 1688, 1689
 1690, 1691, 1692, 1693, 1694, 1721, 1722, 1723, 1724, 1725, 1726, 1727, 1728, 1729, 1730, 1731
 1732, 1733, 1734, 1761, 1762, 1763, 1764, 1765, 1766, 1767, 1768, 1769, 1770, 1771, 1772, 1773
 1774, 1801, 1802, 1803, 1804, 1805, 1806, 1807, 1808, 1809, 1810, 1811, 1812, 1813, 1814, 1841
 1842, 1843, 1844, 1845, 1846, 1847, 1848, 1849, 1850, 1851, 1852, 1853, 1854, 1881, 1882, 1883
 1884, 1885, 1886, 1887, 1888, 1889, 1890, 1891, 1892, 1893, 1894, 1971, 1972, 1973, 1974, 1975
 1976, 1977, 1978, 1979, 1980, 1981, 1982, 1983, 1984, 1985, 1986, 1987, 1988, 1989, 1990, 1991
 1992, 1993, 1994, 1995, 1996, 1997, 1998, 1999, 2000, 2001, 2002, 2003, 2004, 2005, 2006, 2007
 2008, 2009, 2010, 2011, 2012, 2013, 2014, 2015, 2016, 2017, 2018, 2019, 2020, 2021, 2022, 2023
** ... 64 like lines cut
*Nset, nset=_PickedSet51, internal, instance=instPanel
    1,    3,    4,    6,   15,   17,   83,   87,   94,   97,  280,  281,  282,  339,  342,  363
  365,  366,  367,  368,  369,  376,  377,  378,  379,  380,  396,  397,  398,  399,  400,  407
  408,  409,  410,  411,  444,  445,  446,  447,  448,  474,  475,  476,  477,  478,  501,  502
  503,  504,  505,  736,  769, 1596, 1599, 1600, 1601, 1602, 1603, 1604, 1612, 1613, 1616, 1617
 1618, 1619, 1620, 1621, 2077, 2078, 2079, 2080, 2081, 2180, 2181, 2182, 2183, 2184, 2185, 2186
 2187, 2188, 2189, 2461, 2462, 2463, 2464, 2465, 2533, 2534, 2535, 2536, 2537, 2538, 2539, 2545
 2546, 2547, 2548, 2549, 2550, 2551, 2552, 2613, 2614, 2615, 2616, 2617, 2618, 2619, 2620, 2621
 2622, 2623, 2624, 2625, 2626, 2627, 2628, 2629, 2630, 2631, 2632, 2633, 2634, 2635, 2636, 2637
 2938, 2939, 2940, 2941, 2942, 2943, 2944, 2945, 2946, 2947, 2948, 2949, 2950, 2951, 2952, 2953
 2954, 2955, 2956, 2957, 2958, 2959, 2960, 2961, 2962
*Elset, elset=_PickedSet51, internal, instance=instPanel
    1,    2,    3,    4,    5,   31,   32,   33,   34,   35,   61,   62,   63,   64,   65,  111
  117,  123,  124,  125,  126,  142,  143,  144,  160,  161,  162,  178,  179,  180,  196,  197
  198,  234,  240,  246,  257,  258,  278,  279,  281,  283,  370,  371,  391,  392,  394,  396
  483,  484,  504,  505,  507,  509,  596,  597,  617,  618,  620,  622,  709,  710,  730,  731
  733,  735,  822,  823,  843,  844,  846,  848, 1223, 1233, 1261, 1271, 3290, 3291, 3303, 3305
 3307, 3308, 3313, 3314, 3317, 3334, 3343, 3344, 3352, 3354, 3356, 3357, 3362, 3363, 3366, 4379
 4382, 4385, 4388, 4391, 4394, 5175, 5178, 5181, 5184, 5187, 5190, 5195, 5198, 5201, 5204, 5207
 5210, 6725, 6728, 6731, 6734, 6737, 6740, 8114, 8115, 8127, 8129, 8131, 8132, 8137, 8138, 8141
 8156, 8157, 8159, 8178, 8180, 8182, 8183, 8188, 8189, 8192
*Nset, nset=_PickedSet52, internal, instance=instPanel
    1,    2,    4,    5,    7,   16,   35,   38,   45,   48,  160,  161,  164,  167,  170,  173
  176,  179,  182,  185,  188,  191,  194,  197,  370,  371,  372,  373,  374,  375,  376,  377
  378,  379,  380,  391,  392,  393,  394,  395,  401,  402,  403,  404,  405,  406,  422,  423
  424,  425,  426,  427,  428,  479,  480,  481,  482,  483,  494,  495,  496,  497,  498,  499
  500, 1048, 1049, 1050, 1051, 1052, 1060, 1061, 1062, 1063, 1064, 1070, 1071, 1072, 1073, 1074
 1080, 1081, 1082, 1083, 1084, 1090, 1091, 1092, 1093, 1094, 1100, 1101, 1102, 1103, 1104, 1110
 1111, 1112, 1113, 1114, 1120, 1121, 1122, 1123, 1124, 1130, 1131, 1132, 1133, 1134, 1140, 1141
 1142, 1143, 1144, 1150, 1151, 1152, 1153, 1154, 1160, 1161, 1162, 1163, 1164, 1170, 1171, 1172
 1173, 1174, 1180, 1181, 1182, 1183, 1184, 1190, 1191, 1192, 1193, 1194, 1200, 1201, 1202, 1203
 1204, 1207, 1208, 1209, 1210, 1211, 1217, 1218, 1219, 1220, 1221, 1224, 1225, 1226, 1227, 1232
 1233, 1234, 1235, 1236, 1237, 1238, 1239, 1240, 1245, 1246, 1247, 1248, 1249, 1254, 1255, 1256
 1257, 1258, 1264, 1265, 1266, 1267, 1268, 2583, 2584, 2585, 2586, 2587, 2588, 2589, 2590, 2591
 2592, 2593, 2594, 2595, 2596, 2597, 2598, 2599, 2600, 2601, 2602, 2603, 2604, 2605, 2606, 2607
 2608, 2609, 2610, 2611, 2612, 2963, 2964, 2965, 2966, 2967, 2968, 2969, 2970, 2971, 2972, 2973
 2974, 2975, 2976, 2977, 2978, 2979, 2980, 2981, 2982, 2983, 2984, 2985, 2986, 2987, 2988, 2989
 2990, 2991, 2992, 2993, 2994, 2995, 2996, 2997
*Elset, elset=_PickedSet52, internal, instance=instPanel
    5,   10,   15,   20,   25,   30,   35,   40,   45,   50,   55,   60,   65,   70,   75,   80
   85,   90,   91,   96,  101,  124,  125,  126,  127,  128,  129,  130,  131,  132,  133,  134
  135,  136,  137,  138,  139,  140,  141,  214,  215,  216,  247,  255,  256,  263,  264,  266
  267,  286,  360,  368,  369,  376,  377,  379,  380,  399,  473,  481,  482,  489,  490,  492
  493,  512,  586,  594,  595,  602,  603,  605,  606,  625,  699,  707,  708,  715,  716,  718
  719,  738,  812,  820,  821,  828,  829,  831,  832,  851,  968, 1013, 1655, 1656, 1657, 1658
 1659, 1660, 1669, 1671, 1672, 1675, 1676, 1677, 1683, 1686, 1687, 1690, 1691, 1692, 1697, 1700
 1701, 1704, 1705, 1706, 1709, 1710, 1711, 1712, 1713, 1714, 1723, 1725, 1726, 1729, 1730, 1731
 1737, 1741, 1742, 1745, 1746, 1747, 1749, 1750, 1751, 1752, 1753, 1754, 1763, 1767, 1768, 1771
 1772, 1773, 1777, 1781, 1782, 1785, 1786, 1787, 1789, 1790, 1791, 1792, 1793, 1794, 1803, 1806
 1807, 1810, 1811, 1812, 1817, 1819, 1820, 1823, 1824, 1825, 1829, 1830, 1831, 1832, 1833, 1834
 1843, 1845, 1846, 1849, 1850, 1851, 1857, 1859, 1860, 1863, 1864, 1865, 1869, 1870, 1871, 1872
 1873, 1874, 1883, 1886, 1887, 1890, 1891, 1892, 1895, 1896, 1900, 1903, 1905, 1907, 1908, 1909
 1910, 1911, 1912, 1919, 1920, 1924, 1927, 1929, 1933, 1937, 1938, 1941, 1942, 1943, 1945, 1946
 1947, 1948, 1949, 1950, 1959, 1962, 1963, 1966, 1967, 1968
*Elset, elset=__PickedSurf49_S4, internal, instance=instPanel, generate
 126,  213,    3
*Elset, elset=__PickedSurf49_S3, internal, instance=instPanel
 214, 217, 220, 223, 226, 229, 230, 231, 232, 233, 234
*Surface, type=ELEMENT, name=_PickedSurf49, internal
__PickedSurf49_S4, S4
__PickedSurf49_S3, S3
*End Assembly
*Amplitude, name=Amp-1, definition=EQUALLY SPACED, fixed interval=5.
          0.,          0.5,           1.,           1.,           1.
** 
** MATERIALS
** 
*Material, name=Honeycomb
*Density
1000.,
*Elastic
 3e+09, 0.3
*Material, name=Laminate
*Density
1652.,
*Elastic, type=ENGINEERING CONSTANTS
 1.79e+10, 1.79e+10,    6e+09,      0.3,      0.3,      0.3,    6e+09,    1e+09
    1e+09,
*Material, name=Potting
*Density
1100.,
*Elastic
 8.9e+08, 0.3
*Material, name=Steel
*Density
7700.,
*Elastic
 2.1e+11, 0.3
** 
** BOUNDARY CONDITIONS
** 
** Name: Clamp Type: Displacement/Rotation
*Boundary
_PickedSet50, 3, 3
** Name: XSym Type: Symmetry/Antisymmetry/Encastre
*Boundary
_PickedSet52, XSYMM
** Name: YSym Type: Symmetry/Antisymmetry/Encastre
*Boundary
_PickedSet51, YSYMM
** ----------------------------------------------------------------
** 
** STEP: Pullout
** 
*Step, name=Pullout
Explicit Pullout
*Dynamic, Explicit
, 20.
*Bulk Viscosity
0.06, 1.2
** Mass Scaling: Semi-Automatic
**               Whole Model
*Variable Mass Scaling, dt=0.0001, type=below min, frequency=100
** 
** LOADS
** 
** Name: Pressure   Type: Pressure
*Dsload, amplitude=Amp-1
_PickedSurf49, P, -8.35189e+06
** 
** OUTPUT REQUESTS
** 
*Restart, write, number interval=1, time marks=NO
** 
** FIELD OUTPUT: F-Output-1
** 
*Output, field, variable=PRESELECT
** 
** HISTORY OUTPUT: Insert-ReactionForce
** 
*Output, history
*Node Output, nset=instPanel.Insert-Top
RF3, U3
** 
** HISTORY OUTPUT: H-Output-1
** 
*Output, history, variable=PRESELECT
*End Step
