*Heading
 Alfano Crisfield non-symmetric multi-delamination analysis
** Job name: alfano_2d_tie_std Model name: Alfano
** Generated by: Abaqus/CAE 6.10-1
*Preprint, echo=NO, model=NO, history=NO, contact=NO
**
** PARTS
**
*Part, name=Bottom_cohesive
*Node
      1, 0.0799999982,           0.
      2,  0.200000003,           0.
      3,  0.200000003, 1.32499999e-05
      4, 0.0799999982, 1.32499999e-05
      5,           0.,           0.
      6, 0.0599999987,           0.
      7, 0.0599999987, 1.32499999e-05
      8,           0., 1.32499999e-05
      9, 0.0810000002,           0.
     10, 0.0820000023,           0.
     11, 0.0829999968,           0.
     12, 0.0839999989,           0.
     13, 0.0850000009,           0.
     14, 0.0860000029,           0.
     15, 0.0869999975,           0.
     16, 0.0879999995,           0.
     17, 0.0890000015,           0.
     18, 0.0900000036,           0.
     19, 0.0909999982,           0.
     20, 0.0920000002,           0.
** ... 344 like lines cut
*Element, type=COH2D4
  1,   1,   9, 246,   4
  2,   9,  10, 245, 246
  3,  10,  11, 244, 245
  4,  11,  12, 243, 244
  5,  12,  13, 242, 243
  6,  13,  14, 241, 242
  7,  14,  15, 240, 241
  8,  15,  16, 239, 240
  9,  16,  17, 238, 239
 10,  17,  18, 237, 238
 11,  18,  19, 236, 237
 12,  19,  20, 235, 236
 13,  20,  21, 234, 235
 14,  21,  22, 233, 234
 15,  22,  23, 232, 233
 16,  23,  24, 231, 232
 17,  24,  25, 230, 231
 18,  25,  26, 229, 230
 19,  26,  27, 228, 229
 20,  27,  28, 227, 228
** ... 160 like lines cut
*Nset, nset=_PickedSet3, internal, generate
   1,  364,    1
*Elset, elset=_PickedSet3, internal, generate
   1,  180,    1
** Section: coh
*Cohesive Section, elset=_PickedSet3, material=Coh, response=TRACTION SEPARATION, thickness=GEOMETRY
, 0.02
*End Part
**  
*Part, name=Plate
*Node
      1,           0., 0.00161649997
      2,  0.200000003, 0.00161649997
      3,  0.200000003, 0.00320650009
      4,           0., 0.00320650009
      5,           0.,   0.00133825
      6,  0.200000003,   0.00133825
      7,  0.200000003, 0.00160325004
      8,           0., 0.00160325004
      9,  0.200000003, 0.00132499996
     10,           0., 0.00132499996
     11,           0.,           0.
     12,  0.200000003,           0.
     13, 0.00100000005, 0.00161649997
     14, 0.00200000009, 0.00161649997
     15, 0.00300000003, 0.00161649997
     16, 0.00400000019, 0.00161649997
     17, 0.00499999989, 0.00161649997
     18, 0.00600000005, 0.00161649997
     19, 0.00700000022, 0.00161649997
     20, 0.00800000038, 0.00161649997
** ... 1186 like lines cut
*Element, type=CPE4I
  1,   1,  13, 410,   4
  2,  13,  14, 409, 410
  3,  14,  15, 408, 409
  4,  15,  16, 407, 408
  5,  16,  17, 406, 407
  6,  17,  18, 405, 406
  7,  18,  19, 404, 405
  8,  19,  20, 403, 404
  9,  20,  21, 402, 403
 10,  21,  22, 401, 402
 11,  22,  23, 400, 401
 12,  23,  24, 399, 400
 13,  24,  25, 398, 399
 14,  25,  26, 397, 398
 15,  26,  27, 396, 397
 16,  27,  28, 395, 396
 17,  28,  29, 394, 395
 18,  29,  30, 393, 394
 19,  30,  31, 392, 393
 20,  31,  32, 391, 392
** ... 580 like lines cut
*Nset, nset=_PickedSet4, internal, generate
    1,  1206,     1
*Elset, elset=_PickedSet4, internal, generate
   1,  600,    1
*Nset, nset=_PickedSet5, internal, generate
    1,  1206,     1
*Elset, elset=_PickedSet5, internal, generate
   1,  600,    1
*Orientation, name=Ori-1
          1.,           0.,           0.,           0.,           1.,           0.
3, 0.
** Section: plate
*Solid Section, elset=_PickedSet5, orientation=Ori-1, material=Mat1
0.02,
*End Part
**  
*Part, name=Top_cohesive
*Node
      1, 0.0399999991,           0.
      2, 0.0410000011,           0.
      3, 0.0419999994,           0.
      4, 0.0430000015,           0.
      5, 0.0439999998,           0.
      6, 0.0450000018,           0.
      7, 0.0460000001,           0.
      8, 0.0469999984,           0.
      9, 0.0480000004,           0.
     10, 0.0489999987,           0.
     11, 0.0500000007,           0.
     12,  0.050999999,           0.
     13, 0.0520000011,           0.
     14, 0.0529999994,           0.
     15, 0.0540000014,           0.
     16, 0.0549999997,           0.
     17, 0.0560000017,           0.
     18,        0.057,           0.
     19, 0.0579999983,           0.
     20, 0.0590000004,           0.
** ... 302 like lines cut
*Element, type=COH2D4
  1,   1,   2, 163, 162
  2,   2,   3, 164, 163
  3,   3,   4, 165, 164
  4,   4,   5, 166, 165
  5,   5,   6, 167, 166
  6,   6,   7, 168, 167
  7,   7,   8, 169, 168
  8,   8,   9, 170, 169
  9,   9,  10, 171, 170
 10,  10,  11, 172, 171
 11,  11,  12, 173, 172
 12,  12,  13, 174, 173
 13,  13,  14, 175, 174
 14,  14,  15, 176, 175
 15,  15,  16, 177, 176
 16,  16,  17, 178, 177
 17,  17,  18, 179, 178
 18,  18,  19, 180, 179
 19,  19,  20, 181, 180
 20,  20,  21, 182, 181
** ... 140 like lines cut
*Nset, nset=_PickedSet3, internal, generate
   1,  322,    1
*Elset, elset=_PickedSet3, internal, generate
   1,  160,    1
** Section: coh
*Cohesive Section, elset=_PickedSet3, material=Coh, response=TRACTION SEPARATION, thickness=GEOMETRY
, 0.02
*End Part
**  
**
** ASSEMBLY
**
*Assembly, name=Assembly
**  
*Instance, name=Bottom_cohesive-1, part=Bottom_cohesive
        0.22,     0.001325,           0.
*End Instance
**  
*Instance, name=Plate-1, part=Plate
        0.22,           0.,           0.
*End Instance
**  
*Instance, name=Top_cohesive-1, part=Top_cohesive
        0.22,   0.00160325,           0.
*End Instance
**  
*Nset, nset=topBC, instance=Plate-1
 4,
*Nset, nset=botBC, instance=Plate-1
 11,
*Nset, nset=dispBC, instance=Plate-1
  4, 11
*Nset, nset=_PickedSet21, internal, instance=Plate-1
 4,
*Elset, elset=_top_S1, internal, instance=Plate-1, generate
   1,  200,    1
*Surface, type=ELEMENT, name=top
_top_S1, S1
*Elset, elset=_middle-top_S3, internal, instance=Plate-1, generate
 201,  400,    1
*Surface, type=ELEMENT, name=middle-top
_middle-top_S3, S3
*Elset, elset=_middle-bot_S1, internal, instance=Plate-1, generate
 201,  400,    1
*Surface, type=ELEMENT, name=middle-bot
_middle-bot_S1, S1
*Elset, elset=_bottom_S1, internal, instance=Plate-1, generate
 401,  600,    1
*Surface, type=ELEMENT, name=bottom
_bottom_S1, S1
*Elset, elset=_botCoh-Top_S3, internal, instance=Bottom_cohesive-1, generate
   1,  180,    1
*Surface, type=ELEMENT, name=botCoh-Top
_botCoh-Top_S3, S3
*Elset, elset=_botCoh-Bot_S1, internal, instance=Bottom_cohesive-1, generate
   1,  180,    1
*Surface, type=ELEMENT, name=botCoh-Bot
_botCoh-Bot_S1, S1
*Elset, elset=_topCoh-Top_S3, internal, instance=Top_cohesive-1, generate
   1,  160,    1
*Surface, type=ELEMENT, name=topCoh-Top
_topCoh-Top_S3, S3
*Elset, elset=_topCoh-Bot_S1, internal, instance=Top_cohesive-1, generate
   1,  160,    1
*Surface, type=ELEMENT, name=topCoh-Bot
_topCoh-Bot_S1, S1
** Constraint: botCoh-Bottom
*Tie, name=botCoh-Bottom, adjust=yes
botCoh-Bot, bottom
** Constraint: botCoh-Middle
*Tie, name=botCoh-Middle, adjust=yes
botCoh-Top, middle-bot
** Constraint: cohTop-Middle
*Tie, name=cohTop-Middle, adjust=yes
topCoh-Bot, middle-top
** Constraint: cohTop-Top
*Tie, name=cohTop-Top, adjust=yes
topCoh-Top, top
*End Assembly
** 
** MATERIALS
** 
*Material, name=Coh
*Damage Initiation, criterion=QUADS
 3.3e+06, 7e+06,    0.
*Damage Evolution, type=ENERGY, mixed mode behavior=POWER LAW, power=1.
330.,800.,  0.
*Elastic, type=TRACTION
 8.5e+08, 8.5e+08, 8.5e+08
*Material, name=Mat1
*Density
 2.0388e+06,
*Elastic, type=ENGINEERING CONSTANTS
 1.15e+11, 8.5e+09, 8.5e+09,    0.29,    0.29,     0.3, 4.5e+09, 3.3e+09
 4.5e+09,
** 
** INTERACTION PROPERTIES
** 
*Surface Interaction, name=int
1.,
*Friction
0.,
** 
** BOUNDARY CONDITIONS
** 
** Name: fix Type: Displacement/Rotation
*Boundary
dispBC, 1, 1
** 
** INTERACTIONS
** 
** Interaction: lower
*Contact Pair, interaction=int, type=SURFACE TO SURFACE
bottom, middle-bot
** Interaction: upper
*Contact Pair, interaction=int, type=SURFACE TO SURFACE
top, middle-top
** ----------------------------------------------------------------
** 
** STEP: Peel
** 
*Step, name=Peel, nlgeom=YES, inc=5000
Pulling apart the plates
*Static, stabilize, factor=700000., allsdtol=0, continue=NO
0.01, 1., 1e-08, 1.
** 
** BOUNDARY CONDITIONS
** 
** Name: botDisp Type: Displacement/Rotation
*Boundary
botBC, 2, 2, -0.02
** Name: topDisp Type: Displacement/Rotation
*Boundary
topBC, 2, 2, 0.02
** 
** CONTROLS
** 
*Controls, reset
*Controls, analysis=discontinuous
*Controls, parameters=time incrementation
, , , , , , , 10, , , 
*Controls, parameters=line search
4, 4., 0.25, , 0.15
** 
** OUTPUT REQUESTS
** 
*Restart, write, frequency=0
*Monitor, dof=2, node=_PickedSet21, frequency=1
** 
** FIELD OUTPUT: F-Output-1
** 
*Output, field, frequency=9999
*Node Output
U, 
*Element Output, directions=YES
S, 
** 
** HISTORY OUTPUT: H-Output-2
** 
*Output, history
*Node Output, nset=dispBC
RF2, U2
** 
** HISTORY OUTPUT: H-Output-1
** 
*Output, history, variable=PRESELECT
*End Step
