*Heading
** Job name: OneTaper3D Model name: Model-1
** Generated by: Abaqus/CAE 6.10-1
*Preprint, echo=NO, model=NO, history=NO, contact=NO
**
** PARTS
**
*Part, name=Part-2
*End Part
**  
**
** ASSEMBLY
**
*Assembly, name=Assembly
**  
*Instance, name=Part-2-1, part=Part-2
*Node
      1,    0.2511307, 0.0457530953,           0.
      2,    0.2511307, 0.0397999994,           0.
      3,         0.25, 0.0397999994,           0.
      4,         0.25, 0.0457530953,           0.
      5,    0.2511307, 0.0397999994, 0.0799999982
      6,    0.2511307, 0.0457530953, 0.0799999982
      7,         0.25, 0.0457530953, 0.0799999982
      8,         0.25, 0.0397999994, 0.0799999982
      9,    0.2511307, 0.0461300015,           0.
     10,         0.25, 0.0461300015,           0.
     11,    0.2511307, 0.0461300015, 0.0799999982
     12,         0.25, 0.0461300015, 0.0799999982
     13,    0.2511307, 0.0465069041, 0.0799999982
     14,    0.2511307, 0.0503769033, 0.0799999982
     15,         0.25, 0.0500000007, 0.0799999982
     16,    0.2511307, 0.0503769033, -1.7881393e-09
     17,    0.2511307, 0.0465069041, -1.7881393e-09
     18,         0.25, 0.0500000007, -1.7881393e-09
     19,  0.340000004, 0.0457530953, 0.0799999982
     20,          0.5, 0.0457530953, 0.0799999982
** ... 21755 like lines cut
*Element, type=C3D8
 1,    68,  1652,    63,     1,  1689, 10556,  1701,   112
 2,  1652,  1653,    64,    63, 10556, 10557,  1700,  1701
 3,  1653,    65,     2,    64, 10557,  1656,    69,  1700
 4,     4,    67,  1652,    68,    91,  1668, 10556,  1689
 5,    67,    66,  1653,  1652,  1668,  1667, 10557, 10556
 6,    66,     3,    65,  1653,  1667,    90,  1656, 10557
 7,  1689, 10556,  1701,   112,  1690, 10558,  1703,   111
 8, 10556, 10557,  1700,  1701, 10558, 10559,  1702,  1703
 9, 10557,  1656,    69,  1700, 10559,  1657,    70,  1702
10,    91,  1668, 10556,  1689,    92,  1670, 10558,  1690
11,  1668,  1667, 10557, 10556,  1670,  1669, 10559, 10558
12,  1667,    90,  1656, 10557,  1669,    89,  1657, 10559
13,  1690, 10558,  1703,   111,  1691, 10560,  1705,   110
14, 10558, 10559,  1702,  1703, 10560, 10561,  1704,  1705
15, 10559,  1657,    70,  1702, 10561,  1658,    71,  1704
16,    92,  1670, 10558,  1690,    93,  1672, 10560,  1691
17,  1670,  1669, 10559, 10558,  1672,  1671, 10561, 10560
18,  1669,    89,  1657, 10559,  1671,    88,  1658, 10561
19,  1691, 10560,  1705,   110,  1692, 10562,  1707,   109
20, 10560, 10561,  1704,  1705, 10562, 10563,  1706,  1707
** ... 16324 like lines cut
*Element, type=COH3D8
73,  119,   68,    1,    9, 1722, 1689,  112,  131
74,   10,    4,   68,  119,  120,   91, 1689, 1722
75, 1722, 1689,  112,  131, 1723, 1690,  111,  132
76,  120,   91, 1689, 1722,  121,   92, 1690, 1723
77, 1723, 1690,  111,  132, 1724, 1691,  110,  133
78,  121,   92, 1690, 1723,  122,   93, 1691, 1724
79, 1724, 1691,  110,  133, 1725, 1692,  109,  134
80,  122,   93, 1691, 1724,  123,   94, 1692, 1725
81, 1725, 1692,  109,  134, 1726, 1693,  108,  135
82,  123,   94, 1692, 1725,  124,   95, 1693, 1726
83, 1726, 1693,  108,  135, 1727, 1694,  107,  136
84,  124,   95, 1693, 1726,  125,   96, 1694, 1727
85, 1727, 1694,  107,  136, 1728, 1695,  106,  137
86,  125,   96, 1694, 1727,  126,   97, 1695, 1728
87, 1728, 1695,  106,  137, 1729, 1696,  105,  138
88,  126,   97, 1695, 1728,  127,   98, 1696, 1729
89, 1729, 1696,  105,  138, 1730, 1697,  104,  139
90,  127,   98, 1696, 1729,  128,   99, 1697, 1730
91, 1730, 1697,  104,  139, 1731, 1698,  103,  140
92,  128,   99, 1697, 1730,  129,  100, 1698, 1731
** ... 2308 like lines cut
*Nset, nset=_PickedSet16, internal
    10,    12,    13,    14,    15,    16,    17,    18,    41,    42,    43,    44,    45,    46,    47,    48
    49,    50,    51,    52,    53,    54,    55,    56,   120,   121,   122,   123,   124,   125,   126,   127
   128,   129,   130,   143,   144,   145,   146,   147,   148,   149,   150,   151,   152,   153,   154,   155
   156,   157,   158,   159,   160,   161,   162,   163,   164,   165,   166,   167,   168,   169,   170,   171
   172,   173,   174,   175,   176,   177,   178,   179,   180,   181,   182,   183,   184,   185,   186,   187
   853,   854,   855,   856,   857,   858,   859,   860,   861,   862,   863,   864,   865,   866,   867,   868
   869,   870,   871,   872,   873,   874,   875,   876,   877,   878,   879,   880,   881,   882,   883,   884
   885,   886,   887,   888,   889,   890,   891,   892,   893,   894,   895,   896,   897,   898,   899,   900
   901,   902,   903,   904,   905,   906,   907,   908,   909,   910,   911,   912,   913,   914,   915,   916
   917,   918,   919,   920,   921,   922,   923,   924,   925,   926,   927,   928,   929,   930,   931,   932
   933,   934,   935,   936,   937,   938,   939,   940,   941,   942,   943,   944,   945,   946,   947,   948
   949,   950,   951,   952,   953,   954,   955,   956,   957,   958,   959,   960,   961,   962,   963,   964
   965,   966,   967,   968,   969,   970,   971,   972,   973,   974,   975,   976,   977,   978,   979,   980
   981,   982,   983,   984,   985,   986,   987,   988,   989,   990,   991,   992,   993,   994,   995,   996
   997,   998,   999,  1000,  1001,  1002,  1003,  1004,  1005,  1006,  1007,  1008,  1009,  1010,  1011,  1012
  1013,  1014,  1015,  1016,  1017,  1018,  1019,  1020,  1021,  1022,  1023,  1024,  1025,  1026,  1027,  1028
  1029,  1030,  1031,  1032,  1033,  1034,  1035,  1036,  1037,  1038,  1039,  1040,  1041,  1042,  1043,  1044
  1045,  1046,  1047,  1048,  1049,  1050,  1051,  1052,  1053,  1054,  1055,  1056,  1057,  1058,  1059,  1060
  1061,  1062,  1063,  1064,  1065,  1066,  1067,  1068,  1069,  1070,  1071,  1072,  1073,  1074,  1075,  1076
  1077,  1078,  1079,  1080,  1081,  1082,  1083,  1084,  1085,  1086,  1087,  1088,  1089,  1090,  1091,  1092
** ... 411 like lines cut
*Elset, elset=_PickedSet16, internal
    97,    98,    99,   100,   101,   102,   103,   104,   105,   106,   107,   108,   109,   110,   111,   112
   113,   114,   115,   116,   117,   118,   119,   120,   121,   122,   123,   124,   125,   126,   127,   128
   129,   130,   131,   132,   133,   134,   135,   136,   137,   138,   139,   140,   141,   142,   143,   144
  9865,  9866,  9867,  9868,  9869,  9870,  9871,  9872,  9873,  9874,  9875,  9876,  9877,  9878,  9879,  9880
  9881,  9882,  9883,  9884,  9885,  9886,  9887,  9888,  9889,  9890,  9891,  9892,  9893,  9894,  9895,  9896
  9897,  9898,  9899,  9900,  9901,  9902,  9903,  9904,  9905,  9906,  9907,  9908,  9909,  9910,  9911,  9912
  9913,  9914,  9915,  9916,  9917,  9918,  9919,  9920,  9921,  9922,  9923,  9924,  9925,  9926,  9927,  9928
  9929,  9930,  9931,  9932,  9933,  9934,  9935,  9936,  9937,  9938,  9939,  9940,  9941,  9942,  9943,  9944
  9945,  9946,  9947,  9948,  9949,  9950,  9951,  9952,  9953,  9954,  9955,  9956,  9957,  9958,  9959,  9960
  9961,  9962,  9963,  9964,  9965,  9966,  9967,  9968,  9969,  9970,  9971,  9972,  9973,  9974,  9975,  9976
  9977,  9978,  9979,  9980,  9981,  9982,  9983,  9984,  9985,  9986,  9987,  9988,  9989,  9990,  9991,  9992
  9993,  9994,  9995,  9996,  9997,  9998,  9999, 10000, 10001, 10002, 10003, 10004, 10005, 10006, 10007, 10008
 10009, 10010, 10011, 10012, 10013, 10014, 10015, 10016, 10017, 10018, 10019, 10020, 10021, 10022, 10023, 10024
 10025, 10026, 10027, 10028, 10029, 10030, 10031, 10032, 10033, 10034, 10035, 10036, 10037, 10038, 10039, 10040
 10041, 10042, 10043, 10044, 10045, 10046, 10047, 10048, 10049, 10050, 10051, 10052, 10053, 10054, 10055, 10056
 10057, 10058, 10059, 10060, 10061, 10062, 10063, 10064, 10065, 10066, 10067, 10068, 10069, 10070, 10071, 10072
 10073, 10074, 10075, 10076, 10077, 10078, 10079, 10080, 10081, 10082, 10083, 10084, 10085, 10086, 10087, 10088
 10089, 10090, 10091, 10092, 10093, 10094, 10095, 10096, 10097, 10098, 10099, 10100, 10101, 10102, 10103, 10104
 10105, 10106, 10107, 10108, 10109, 10110, 10111, 10112, 10113, 10114, 10115, 10116, 10117, 10118, 10119, 10120
 10121, 10122, 10123, 10124, 10125, 10126, 10127, 10128, 10129, 10130, 10131, 10132, 10133, 10134, 10135, 10136
** ... 295 like lines cut
*Nset, nset=_PickedSet20, internal
     9,    10,    11,    12,    13,    17,    23,    24,    25,    26,    27,    28,    29,    30,    31,    32
    33,    34,    41,    42,    43,    44,    49,    50,   119,   120,   121,   122,   123,   124,   125,   126
   127,   128,   129,   130,   131,   132,   133,   134,   135,   136,   137,   138,   139,   140,   141,   142
   171,   172,   173,   174,   175,   176,   177,   178,   179,   180,   181,   252,   253,   254,   255,   256
   257,   258,   259,   260,   261,   262,   263,   264,   265,   266,   267,   268,   269,   270,   271,   272
   273,   274,   275,   276,   277,   278,   279,   280,   281,   282,   283,   284,   285,   286,   287,   288
   289,   290,   291,   292,   293,   294,   295,   296,   297,   298,   299,   300,   301,   302,   303,   304
   305,   306,   307,   308,   309,   310,   311,   312,   313,   314,   315,   316,   317,   318,   319,   320
   321,   322,   323,   324,   325,   326,   327,   328,   329,   330,   331,   332,   333,   334,   335,   336
   337,   338,   339,   340,   341,   342,   343,   344,   345,   346,   347,   348,   349,   350,   351,   352
   353,   354,   355,   356,   357,   358,   359,   360,   361,   362,   363,   364,   365,   366,   367,   368
   369,   370,   371,   372,   373,   374,   375,   376,   377,   378,   379,   380,   381,   382,   383,   384
   385,   386,   387,   388,   389,   390,   391,   392,   393,   394,   395,   396,   397,   398,   399,   400
   401,   402,   403,   404,   405,   406,   407,   408,   409,   410,   411,   412,   413,   414,   415,   416
   417,   418,   419,   420,   421,   422,   423,   424,   425,   426,   427,   428,   429,   430,   431,   432
   433,   434,   435,   436,   437,   438,   439,   440,   441,   442,   443,   444,   445,   446,   447,   448
   449,   450,   451,   452,   453,   454,   455,   456,   457,   458,   459,   460,   461,   462,   463,   464
   465,   466,   467,   468,   469,   470,   471,   472,   473,   474,   475,   476,   477,   478,   479,   480
   481,   482,   483,   484,   485,   486,   487,   488,   489,   490,   491,   492,   493,   494,   495,   496
   497,   498,   499,   500,   501,   502,   503,   504,   505,   506,   507,   508,   509,   510,   511,   512
** ... 636 like lines cut
*Elset, elset=_PickedSet20, internal
   145,   146,   147,   148,   149,   150,   151,   152,   153,   154,   155,   156,   421,   422,   423,   424
   425,   426,   427,   428,   429,   430,   431,   432,   433,   434,   435,   436,   437,   438,   439,   440
   441,   442,   443,   444,   445,   446,   447,   448,   449,   450,   451,   452,   453,   454,   455,   456
   457,   458,   459,   460,   461,   462,   463,   464,   465,   466,   467,   468,   469,   470,   471,   472
   473,   474,   475,   476,   477,   478,   479,   480,   481,   482,   483,   484,   485,   486,   487,   488
   489,   490,   491,   492,   493,   494,   495,   496,   497,   498,   499,   500,   501,   502,   503,   504
   505,   506,   507,   508,   509,   510,   511,   512,   513,   514,   515,   516,   517,   518,   519,   520
   521,   522,   523,   524,   525,   526,   527,   528,   529,   530,   531,   532,   533,   534,   535,   536
   537,   538,   539,   540,   541,   542,   543,   544,   545,   546,   547,   548,   549,   550,   551,   552
   553,   554,   555,   556,   557,   558,   559,   560,   561,   562,   563,   564,   565,   566,   567,   568
   569,   570,   571,   572,   573,   574,   575,   576,   577,   578,   579,   580,   581,   582,   583,   584
   585,   586,   587,   588,   589,   590,   591,   592,   593,   594,   595,   596,   597,   598,   599,   600
   601,   602,   603,   604,   605,   606,   607,   608,   609,   610,   611,   612,   613,   614,   615,   616
   617,   618,   619,   620,   621,   622,   623,   624,   625,   626,   627,   628,   629,   630,   631,   632
   633,   634,   635,   636,   637,   638,   639,   640,   641,   642,   643,   644,   645,   646,   647,   648
   649,   650,   651,   652,   653,   654,   655,   656,   657,   658,   659,   660,   661,   662,   663,   664
   665,   666,   667,   668,   669,   670,   671,   672,   673,   674,   675,   676,   677,   678,   679,   680
   681,   682,   683,   684,   685,   686,   687,   688,   689,   690,   691,   692,   693,   694,   695,   696
   697,   698,   699,   700,   701,   702,   703,   704,   705,   706,   707,   708,   709,   710,   711,   712
   713,   714,   715,   716,   717,   718,   719,   720,   721,   722,   723,   724,   725,   726,   727,   728
** ... 514 like lines cut
*Nset, nset=_PickedSet47, internal
    4,    7,   10,   12,   53,   54,   57,   58,   91,   92,   93,   94,   95,   96,   97,   98
   99,  100,  101,  120,  121,  122,  123,  124,  125,  126,  127,  128,  129,  130, 1205, 1206
 1207, 1208, 1209, 1210, 1211, 1212, 1213, 1214, 1215, 1216, 1217, 1218, 1219, 1220, 1221, 1222
 1223, 1224, 1225, 1226, 1227, 1228, 1229, 1230, 1231, 1232, 1233, 1234, 1235, 1236, 1237, 1238
 1239, 1240, 1241, 1242, 1243, 1244, 1245, 1293, 1294, 1295, 1296, 1297, 1298, 1299, 1300, 1301
 1302, 1303, 1304, 1305, 1306, 1307, 1308, 1309, 1310, 1311, 1312, 1313, 1314, 1315, 1316, 1317
 1318, 1319, 1320, 1321, 1322, 1323, 1324, 1325, 1326, 1327, 1328, 1329, 1330, 1331, 1332, 1333
 7888, 7889, 7890, 7891, 7892, 7893, 7894, 7895, 7896, 7897, 7898, 7899, 7900, 7901, 7902, 7903
 7904, 7905, 7906, 7907, 7908, 7909, 7910, 7911, 7912, 7913, 7914, 7915, 7916, 7917, 7918, 7919
 7920, 7921, 7922, 7923, 7924, 7925, 7926, 7927, 7928, 7929, 7930, 7931, 7932, 7933, 7934, 7935
 7936, 7937, 7938, 7939, 7940, 7941, 7942, 7943, 7944, 7945, 7946, 7947, 7948, 7949, 7950, 7951
 7952, 7953, 7954, 7955, 7956, 7957, 7958, 7959, 7960, 7961, 7962, 7963, 7964, 7965, 7966, 7967
 7968, 7969, 7970, 7971, 7972, 7973, 7974, 7975, 7976, 7977, 7978, 7979, 7980, 7981, 7982, 7983
 7984, 7985, 7986, 7987, 7988, 7989, 7990, 7991, 7992, 7993, 7994, 7995, 7996, 7997, 7998, 7999
 8000, 8001, 8002, 8003, 8004, 8005, 8006, 8007, 8008, 8009, 8010, 8011, 8012, 8013, 8014, 8015
 8016, 8017, 8018, 8019, 8020, 8021, 8022, 8023, 8024, 8025, 8026, 8027, 8028, 8029, 8030, 8031
 8032, 8033, 8034, 8035, 8036, 8037, 8038, 8039, 8040, 8041, 8042, 8043, 8044, 8045, 8046, 8047
 8048, 8049, 8050, 8051, 8052, 8341, 8342, 8343, 8344, 8345, 8346, 8347, 8348, 8349, 8350, 8351
 8352, 8353, 8354, 8355, 8356, 8357, 8358, 8359, 8360, 8361, 8362, 8363, 8364, 8365, 8366, 8367
 8368, 8369, 8370, 8371, 8372, 8373, 8374, 8375, 8376, 8377, 8378, 8379, 8380, 8381, 8382, 8383
** ... 8 like lines cut
*Elset, elset=_PickedSet47, internal, generate
 14209,  14400,      1
*Nset, nset=_PickedSet48, internal
    1,    4,    6,    7,    9,   10,   11,   12,   19,   22,   25,   26,   68,   91,   92,   93
   94,   95,   96,   97,   98,   99,  100,  101,  102,  103,  104,  105,  106,  107,  108,  109
  110,  111,  112,  115,  119,  120,  121,  122,  123,  124,  125,  126,  127,  128,  129,  130
  131,  132,  133,  134,  135,  136,  137,  138,  139,  140,  141,  142,  241,  242,  243,  244
  245,  246,  247,  248,  249,  250,  251,  284,  285,  286,  287,  288,  289,  290,  291,  292
  293,  294, 1454, 1455, 1456, 1457, 1458, 1459, 1460, 1461, 1462, 1463, 1464, 1465, 1466, 1467
 1468, 1469, 1470, 1471, 1490, 1491, 1492, 1493, 1494, 1495, 1496, 1497, 1498, 1499, 1500, 1501
 1502, 1503, 1504, 1505, 1506, 1507, 1508, 1509, 1510, 1511, 1512, 1513, 1514, 1515, 1516, 1517
 1518, 1519, 1520, 1521, 1522, 1523, 1524, 1525, 1526, 1527, 1528, 1529, 1530, 1531, 1532, 1533
 1534, 1535, 1536, 1537, 1538, 1539, 1540, 1541, 1542, 1543, 1689, 1690, 1691, 1692, 1693, 1694
 1695, 1696, 1697, 1698, 1699, 1722, 1723, 1724, 1725, 1726, 1727, 1728, 1729, 1730, 1731, 1732
 9188, 9189, 9190, 9191, 9192, 9193, 9194, 9195, 9196, 9197, 9198, 9199, 9200, 9201, 9202, 9203
 9204, 9205, 9206, 9207, 9208, 9209, 9210, 9211, 9212, 9213, 9214, 9215, 9216, 9217, 9218, 9219
 9220, 9221, 9222, 9223, 9224, 9225, 9226, 9227, 9228, 9229, 9230, 9231, 9232, 9233, 9234, 9235
 9236, 9237, 9238, 9239, 9240, 9241, 9242, 9243, 9244, 9245, 9246, 9247, 9248, 9249, 9250, 9251
 9252, 9253, 9254, 9255, 9256, 9257, 9258, 9259, 9260, 9261, 9262, 9263, 9264, 9265, 9266, 9267
 9268, 9269, 9270, 9271, 9272, 9273, 9274, 9275, 9276, 9277, 9278, 9279, 9280, 9281, 9282, 9283
 9284, 9285, 9286, 9287, 9288, 9289, 9290, 9291, 9292, 9293, 9294, 9295, 9296, 9297, 9298, 9299
 9300, 9301, 9302, 9303, 9304, 9305, 9306, 9307, 9308, 9309, 9310, 9311, 9312, 9313, 9314, 9315
 9316, 9317, 9318, 9319, 9320, 9321, 9322, 9323, 9324, 9325, 9326, 9327, 9328, 9329, 9330, 9331
** ... 16 like lines cut
*Elset, elset=_PickedSet48, internal
    73,    74,    75,    76,    77,    78,    79,    80,    81,    82,    83,    84,    85,    86,    87,    88
    89,    90,    91,    92,    93,    94,    95,    96, 16621, 16622, 16623, 16624, 16625, 16626, 16627, 16628
 16629, 16630, 16631, 16632, 16633, 16634, 16635, 16636, 16637, 16638, 16639, 16640, 16641, 16642, 16643, 16644
 16645, 16646, 16647, 16648, 16649, 16650, 16651, 16652, 16653, 16654, 16655, 16656, 16657, 16658, 16659, 16660
 16661, 16662, 16663, 16664, 16665, 16666, 16667, 16668, 16669, 16670, 16671, 16672, 16673, 16674, 16675, 16676
 16677, 16678, 16679, 16680, 16681, 16682, 16683, 16684, 16685, 16686, 16687, 16688, 16689, 16690, 16691, 16692
 16693, 16694, 16695, 16696, 16697, 16698, 16699, 16700, 16701, 16702, 16703, 16704, 16705, 16706, 16707, 16708
 16709, 16710, 16711, 16712, 16713, 16714, 16715, 16716, 16717, 16718, 16719, 16720, 16721, 16722, 16723, 16724
 16725, 16726, 16727, 16728, 16729, 16730, 16731, 16732, 16733, 16734, 16735, 16736, 16737, 16738, 16739, 16740
 16741, 16742, 16743, 16744, 16745, 16746, 16747, 16748, 16749, 16750, 16751, 16752, 16753, 16754, 16755, 16756
 16757, 16758, 16759, 16760, 16761, 16762, 16763, 16764, 16765, 16766, 16767, 16768, 16769, 16770, 16771, 16772
 16773, 16774, 16775, 16776, 16777, 16778, 16779, 16780, 16781, 16782, 16783, 16784, 16785, 16786, 16787, 16788
 16789, 16790, 16791, 16792, 16793, 16794, 16795, 16796, 16797, 16798, 16799, 16800, 16801, 16802, 16803, 16804
 16805, 16806, 16807, 16808, 16809, 16810, 16811, 16812, 16813, 16814, 16815, 16816, 16817, 16818, 16819, 16820
 16821, 16822, 16823, 16824, 16825, 16826, 16827, 16828, 16829, 16830, 16831, 16832, 16833, 16834, 16835, 16836
 16837, 16838, 16839, 16840, 16841, 16842, 16843, 16844, 16845, 16846, 16847, 16848
*Nset, nset=_PickedSet49, internal
   19,   20,   21,   22,   23,   24,   25,   26,  188,  189,  190,  191,  192,  193,  194,  195
  196,  197,  198,  199,  200,  201,  202,  203,  204,  205,  206,  207,  208,  209,  210,  211
  212,  213,  214,  215,  216,  217,  218,  219,  220,  221,  222,  223,  224,  225,  226,  227
  228,  229,  230,  231,  232,  233,  234,  235,  236,  237,  238,  239,  240,  241,  242,  243
  244,  245,  246,  247,  248,  249,  250,  251,  252,  253,  254,  255,  256,  257,  258,  259
  260,  261,  262,  263,  264,  265,  266,  267,  268,  269,  270,  271,  272,  273,  274,  275
  276,  277,  278,  279,  280,  281,  282,  283,  284,  285,  286,  287,  288,  289,  290,  291
  292,  293,  294,  295,  296,  297,  298,  299,  300,  301,  302,  303,  304,  305,  306,  307
  308,  309,  310,  311,  312,  313,  314,  315, 1799, 1800, 1801, 1802, 1803, 1804, 1805, 1806
 1807, 1808, 1809, 1810, 1811, 1812, 1813, 1814, 1815, 1816, 1817, 1818, 1819, 1820, 1821, 1822
 1823, 1824, 1825, 1826, 1827, 1828, 1829, 1830, 1831, 1832, 1833, 1834, 1835, 1836, 1837, 1838
 1839, 1840, 1841, 1842, 1843, 1844, 1845, 1846, 1847, 1848, 1849, 1850, 1851, 1852, 1853, 1854
 1855, 1856, 1857, 1858, 1859, 1860, 1861, 1862, 1863, 1864, 1865, 1866, 1867, 1868, 1869, 1870
 1871, 1872, 1873, 1874, 1875, 1876, 1877, 1878, 1879, 1880, 1881, 1882, 1883, 1884, 1885, 1886
 1887, 1888, 1889, 1890, 1891, 1892, 1893, 1894, 1895, 1896, 1897, 1898, 1899, 1900, 1901, 1902
 1903, 1904, 1905, 1906, 1907, 1908, 1909, 1910, 1911, 1912, 1913, 1914, 1915, 1916, 1917, 1918
 1919, 1920, 1921, 1922, 1923, 1924, 1925, 1926, 1927, 1928, 1929, 1930, 1931, 1932, 1933, 1934
 1935, 1936, 1937, 1938, 1939, 1940, 1941, 1942, 1943, 1944, 1945, 1946, 1947, 1948, 1949, 1950
 1951, 1952, 1953, 1954, 1955, 1956, 1957, 1958, 1959, 1960, 1961, 1962, 1963, 1964, 1965, 1966
 1967, 1968, 1969, 1970, 1971, 1972, 1973, 1974, 1975, 1976, 1977, 1978, 1979, 1980, 1981, 1982
** ... 18 like lines cut
*Elset, elset=_PickedSet49, internal, generate
 157,  420,    1
*Nset, nset=_PickedSet129, internal
     1,     2,     3,     4,     5,     6,     7,     8,    19,    20,    21,    22,    35,    36,    37,    38
    39,    40,    57,    58,    59,    60,    61,    62,    63,    64,    65,    66,    67,    68,    69,    70
    71,    72,    73,    74,    75,    76,    77,    78,    79,    80,    81,    82,    83,    84,    85,    86
    87,    88,    89,    90,    91,    92,    93,    94,    95,    96,    97,    98,    99,   100,   101,   102
   103,   104,   105,   106,   107,   108,   109,   110,   111,   112,   113,   114,   115,   116,   117,   118
   188,   189,   190,   191,   192,   193,   194,   195,   196,   197,   198,   199,   200,   201,   202,   203
   204,   205,   206,   207,   208,   209,   210,   211,   212,   213,   214,   215,   216,   217,   218,   219
   220,   221,   222,   223,   224,   225,   226,   227,   228,   229,   230,   231,   232,   233,   234,   235
   236,   237,   238,   239,   240,   241,   242,   243,   244,   245,   246,   247,   248,   249,   250,   251
   628,   629,   630,   631,   632,   633,   634,   635,   636,   637,   638,   639,   640,   641,   642,   643
   644,   645,   646,   647,   648,   649,   650,   651,   652,   653,   654,   655,   656,   657,   658,   659
   660,   661,   662,   663,   664,   665,   666,   667,   668,   669,   670,   671,   672,   673,   674,   675
   676,   677,   678,   679,   680,   681,   682,   683,   684,   685,   686,   687,   688,   689,   690,   691
   692,   693,   694,   695,   696,   697,   698,   699,   700,   701,   702,   703,   704,   705,   706,   707
   708,   709,   710,   711,   712,   713,   714,   715,   716,   717,   718,   719,   720,   721,   722,   723
   724,   725,   726,   727,   728,   729,   730,   731,   732,   733,   734,   735,   736,   737,   738,   739
   740,   741,   742,   743,   744,   745,   746,   747,   748,   749,   750,   751,   752,   753,   754,   755
   756,   757,   758,   759,   760,   761,   762,   763,   764,   765,   766,   767,   768,   769,   770,   771
   772,   773,   774,   775,   776,   777,   778,   779,   780,   781,   782,   783,   784,   785,   786,   787
   788,   789,   790,   791,   792,   793,   794,   795,   796,   797,   798,   799,   800,   801,   802,   803
** ... 328 like lines cut
*Elset, elset=_PickedSet129, internal
     1,     2,     3,     4,     5,     6,     7,     8,     9,    10,    11,    12,    13,    14,    15,    16
    17,    18,    19,    20,    21,    22,    23,    24,    25,    26,    27,    28,    29,    30,    31,    32
    33,    34,    35,    36,    37,    38,    39,    40,    41,    42,    43,    44,    45,    46,    47,    48
    49,    50,    51,    52,    53,    54,    55,    56,    57,    58,    59,    60,    61,    62,    63,    64
    65,    66,    67,    68,    69,    70,    71,    72,  7609,  7610,  7611,  7612,  7613,  7614,  7615,  7616
  7617,  7618,  7619,  7620,  7621,  7622,  7623,  7624,  7625,  7626,  7627,  7628,  7629,  7630,  7631,  7632
  7633,  7634,  7635,  7636,  7637,  7638,  7639,  7640,  7641,  7642,  7643,  7644,  7645,  7646,  7647,  7648
  7649,  7650,  7651,  7652,  7653,  7654,  7655,  7656,  7657,  7658,  7659,  7660,  7661,  7662,  7663,  7664
  7665,  7666,  7667,  7668,  7669,  7670,  7671,  7672,  7673,  7674,  7675,  7676,  7677,  7678,  7679,  7680
  7681,  7682,  7683,  7684,  7685,  7686,  7687,  7688,  7689,  7690,  7691,  7692,  7693,  7694,  7695,  7696
  7697,  7698,  7699,  7700,  7701,  7702,  7703,  7704,  7705,  7706,  7707,  7708,  7709,  7710,  7711,  7712
  7713,  7714,  7715,  7716,  7717,  7718,  7719,  7720,  7721,  7722,  7723,  7724,  7725,  7726,  7727,  7728
  7729,  7730,  7731,  7732,  7733,  7734,  7735,  7736,  7737,  7738,  7739,  7740,  7741,  7742,  7743,  7744
  7745,  7746,  7747,  7748,  7749,  7750,  7751,  7752,  7753,  7754,  7755,  7756,  7757,  7758,  7759,  7760
  7761,  7762,  7763,  7764,  7765,  7766,  7767,  7768,  7769,  7770,  7771,  7772,  7773,  7774,  7775,  7776
  7777,  7778,  7779,  7780,  7781,  7782,  7783,  7784,  7785,  7786,  7787,  7788,  7789,  7790,  7791,  7792
  7793,  7794,  7795,  7796,  7797,  7798,  7799,  7800,  7801,  7802,  7803,  7804,  7805,  7806,  7807,  7808
  7809,  7810,  7811,  7812,  7813,  7814,  7815,  7816,  7817,  7818,  7819,  7820,  7821,  7822,  7823,  7824
  7825,  7826,  7827,  7828,  7829,  7830,  7831,  7832,  7833,  7834,  7835,  7836,  7837,  7838,  7839,  7840
  7841,  7842,  7843,  7844,  7845,  7846,  7847,  7848,  7849,  7850,  7851,  7852,  7853,  7854,  7855,  7856
** ... 219 like lines cut
*Nset, nset=_PickedSet130, internal
     9,    11,    23,    24,    25,    26,    27,    28,    29,    30,    31,    32,    33,    34,   131,   132
   133,   134,   135,   136,   137,   138,   139,   140,   141,   252,   253,   254,   255,   256,   257,   258
   259,   260,   261,   262,   263,   264,   265,   266,   267,   268,   269,   270,   271,   272,   273,   274
   275,   276,   277,   278,   279,   280,   281,   282,   283,   284,   285,   286,   287,   288,   289,   290
   291,   292,   293,   294,   295,   296,   297,   298,   299,   300,   301,   302,   303,   304,   305,   306
   307,   308,   309,   310,   311,   312,   313,   314,   315,   316,   317,   318,   319,   320,   321,   322
   323,   324,   325,   326,   327,   328,   329,   330,   331,   332,   333,   334,   335,   336,   337,   338
   339,   340,   341,   342,   343,   344,   345,   346,   347,   348,   349,   350,   351,   352,   353,   354
   355,   356,   357,   358,   359,   360,   361,   362,   363,   364,   365,   366,   367,   368,   369,   370
   371,   372,   373,   374,   375,   376,   377,   378,   379,   380,   381,   382,   383,   384,   385,   386
   387,   388,   389,   390,   391,   392,   393,   394,   395,   396,   397,   398,   399,   400,   401,   402
   403,   404,   405,   406,   407,   408,   409,   410,   411,   412,   413,   414,   415,   416,   417,   418
   419,   420,   421,   422,   423,   424,   425,   426,   427,   428,   429,   430,   431,   432,   433,   434
   435,   436,   437,   438,   439,   440,   441,   442,   443,   444,   445,   446,   447,   448,   449,   450
   451,   452,   453,   454,   455,   456,   457,   458,   459,   460,   461,   462,   463,   464,   465,   466
   467,   468,   469,   470,   471,   472,   473,   474,   475,   476,   477,   478,   479,   480,   481,   482
   483,   484,   485,   486,   487,   488,   489,   490,   491,   492,   493,   494,   495,   496,   497,   498
   499,   500,   501,   502,   503,   504,   505,   506,   507,   508,   509,   510,   511,   512,   513,   514
   515,   516,   517,   518,   519,   520,   521,   522,   523,   524,   525,   526,   527,   528,   529,   530
   531,   532,   533,   534,   535,   536,   537,   538,   539,   540,   541,   542,   543,   544,   545,   546
** ... 562 like lines cut
*Elset, elset=_PickedSet130, internal
   421,   422,   423,   424,   425,   426,   427,   428,   429,   430,   431,   432,   433,   434,   435,   436
   437,   438,   439,   440,   441,   442,   443,   444,   445,   446,   447,   448,   449,   450,   451,   452
   453,   454,   455,   456,   457,   458,   459,   460,   461,   462,   463,   464,   465,   466,   467,   468
   469,   470,   471,   472,   473,   474,   475,   476,   477,   478,   479,   480,   481,   482,   483,   484
   485,   486,   487,   488,   489,   490,   491,   492,   493,   494,   495,   496,   497,   498,   499,   500
   501,   502,   503,   504,   505,   506,   507,   508,   509,   510,   511,   512,   513,   514,   515,   516
   517,   518,   519,   520,   521,   522,   523,   524,   525,   526,   527,   528,   529,   530,   531,   532
   533,   534,   535,   536,   537,   538,   539,   540,   541,   542,   543,   544,   545,   546,   547,   548
   549,   550,   551,   552,   553,   554,   555,   556,   557,   558,   559,   560,   561,   562,   563,   564
   565,   566,   567,   568,   569,   570,   571,   572,   573,   574,   575,   576,   577,   578,   579,   580
   581,   582,   583,   584,   585,   586,   587,   588,   589,   590,   591,   592,   593,   594,   595,   596
   597,   598,   599,   600,   601,   602,   603,   604,   605,   606,   607,   608,   609,   610,   611,   612
   613,   614,   615,   616,   617,   618,   619,   620,   621,   622,   623,   624,   625,   626,   627,   628
   629,   630,   631,   632,   633,   634,   635,   636,   637,   638,   639,   640,   641,   642,   643,   644
   645,   646,   647,   648,   649,   650,   651,   652,   653,   654,   655,   656,   657,   658,   659,   660
   661,   662,   663,   664,   665,   666,   667,   668,   669,   670,   671,   672,   673,   674,   675,   676
   677,   678,   679,   680,   681,   682,   683,   684,   685,   686,   687,   688,   689,   690,   691,   692
   693,   694,   695,   696,   697,   698,   699,   700,   701,   702,   703,   704,   705,   706,   707,   708
   709,   710,   711,   712,   713,   714,   715,   716,   717,   718,   719,   720,   721,   722,   723,   724
   725,   726,   727,   728,   729,   730,   731,   732,   733,   734,   735,   736,   737,   738,   739,   740
** ... 448 like lines cut
*Nset, nset=_PickedSet131, internal
   20,   21,   23,   24,   33,   34,   35,   36,  209,  210,  211,  212,  213,  214,  215,  216
  217,  218,  219,  252,  253,  254,  255,  256,  257,  258,  259,  260,  261,  262,  454,  455
  456,  457,  458,  459,  460,  461,  462,  463,  464,  465,  466,  467,  468,  469,  470,  471
  472,  473,  474,  475,  476,  477,  478,  479,  480,  481,  482,  483,  484,  485,  486,  487
  488,  489,  490,  491,  492,  493,  494,  495,  496,  497,  498,  499,  500,  501,  502,  503
  504,  505,  506,  507,  508,  509,  510,  511,  512,  513,  514,  515,  516,  517,  518,  519
  520,  521,  522,  523,  524,  525,  526,  527,  528,  529,  530,  531,  532,  533,  534,  535
  536,  537,  538,  539,  540,  541,  542,  543,  544,  545,  610,  611,  612,  613,  614,  615
  616,  617,  618,  619,  620,  628,  629,  630,  631,  632,  633,  634,  635,  636,  637,  638
  639,  640,  641,  642,  643,  644,  645,  646,  647,  648,  649,  650,  651,  652,  653,  654
  655,  656,  657,  658,  659,  660,  661,  662,  663,  664,  665,  666,  667,  668,  669,  670
  671,  672,  673,  674,  675,  676,  677,  678,  679,  680,  681,  682,  683,  684,  685,  686
  687,  688,  689,  690,  691,  692,  693,  694,  695,  696,  697,  698,  699,  700,  701,  702
  703,  704,  705,  706,  707,  708,  709,  710,  711,  712,  713,  714,  715,  716,  717,  718
  719,  720,  721,  722,  723,  724,  725,  726,  727,  728,  729,  730, 3339, 3340, 3341, 3342
 3343, 3344, 3345, 3346, 3347, 3348, 3349, 3350, 3351, 3352, 3353, 3354, 3355, 3356, 3357, 3358
 3359, 3360, 3361, 3362, 3363, 3364, 3365, 3366, 3367, 3368, 3369, 3370, 3371, 3372, 3373, 3374
 3375, 3376, 3377, 3378, 3379, 3380, 3381, 3382, 3383, 3384, 3385, 3386, 3387, 3388, 3389, 3390
 3391, 3392, 3393, 3394, 3395, 3396, 3397, 3398, 3399, 3400, 3401, 3402, 3403, 3404, 3405, 3406
 3407, 3408, 3409, 3410, 3411, 3412, 3413, 3414, 3415, 3416, 3417, 3418, 3419, 3420, 3421, 3422
** ... 58 like lines cut
*Elset, elset=_PickedSet131, internal, generate
 7045,  7608,     1
*Nset, nset=_PickedSet132, internal
     9,    11,    13,    17,    27,    28,    29,    30,    31,    32,    41,    42,    43,    44,    49,    50
   131,   132,   133,   134,   135,   136,   137,   138,   139,   140,   141,   171,   172,   173,   174,   175
   176,   177,   178,   179,   180,   181,   344,   345,   346,   347,   348,   349,   350,   351,   352,   353
   354,   355,   356,   357,   358,   359,   360,   361,   362,   363,   364,   365,   366,   367,   368,   369
   370,   371,   372,   373,   374,   375,   376,   377,   378,   379,   380,   381,   382,   383,   384,   385
   386,   387,   388,   389,   390,   391,   392,   393,   394,   395,   396,   397,   398,   399,   400,   401
   402,   403,   404,   405,   406,   407,   408,   409,   410,   411,   412,   413,   414,   415,   416,   417
   418,   419,   420,   421,   422,   423,   424,   425,   426,   427,   428,   429,   430,   431,   432,   433
   434,   435,   436,   437,   438,   439,   440,   441,   442,   443,   444,   445,   446,   447,   448,   449
   450,   451,   452,   453,   546,   547,   548,   549,   550,   551,   552,   553,   554,   555,   556,   557
   558,   559,   560,   561,   562,   563,   564,   565,   566,   567,   568,   569,   570,   571,   572,   573
   574,   575,   576,   577,   578,   579,   580,   581,   582,   583,   584,   585,   586,   587,   588,   589
   590,   591,   592,   593,   594,   595,   596,   597,   598,   599,   600,   601,   602,   853,   854,   855
   856,   857,   858,   859,   860,   861,   862,   863,   864,   865,   866,   867,   868,   869,   870,   871
   872,   873,   874,   875,   876,   877,   878,   879,   880,   881,   882,   883,   884,   885,   886,   887
   888,   889,   890,   891,   892,   893,   894,   895,   896,   897,   898,   899,   900,   901,   902,   903
   904,   905,   906,   907,   908,   909,   910,   911,   912,   913,   914,   915,   916,   917,   918,   919
   920,   921,   922,   923,   924,   925,   926,   927,   928,   929,   930,   931,   932,   933,   934,   935
   936,   937,   938,   939,   940,   941,   942,   943,   944,   945,   946,   947,   948,   949,   950,   951
   952,   953,   954,   955,   956,   957,   958,   959,   960,   961,   962,   963,   964,   965,   966,  1093
** ... 125 like lines cut
*Elset, elset=_PickedSet132, internal
  9301,  9302,  9303,  9304,  9305,  9306,  9307,  9308,  9309,  9310,  9311,  9312,  9313,  9314,  9315,  9316
  9317,  9318,  9319,  9320,  9321,  9322,  9323,  9324,  9325,  9326,  9327,  9328,  9329,  9330,  9331,  9332
  9333,  9334,  9335,  9336,  9337,  9338,  9339,  9340,  9341,  9342,  9343,  9344,  9345,  9346,  9347,  9348
  9349,  9350,  9351,  9352,  9353,  9354,  9355,  9356,  9357,  9358,  9359,  9360,  9361,  9362,  9363,  9364
  9365,  9366,  9367,  9368,  9369,  9370,  9371,  9372,  9373,  9374,  9375,  9376,  9377,  9378,  9379,  9380
  9381,  9382,  9383,  9384,  9385,  9386,  9387,  9388,  9389,  9390,  9391,  9392,  9393,  9394,  9395,  9396
  9397,  9398,  9399,  9400,  9401,  9402,  9403,  9404,  9405,  9406,  9407,  9408,  9409,  9410,  9411,  9412
  9413,  9414,  9415,  9416,  9417,  9418,  9419,  9420,  9421,  9422,  9423,  9424,  9425,  9426,  9427,  9428
  9429,  9430,  9431,  9432,  9433,  9434,  9435,  9436,  9437,  9438,  9439,  9440,  9441,  9442,  9443,  9444
  9445,  9446,  9447,  9448,  9449,  9450,  9451,  9452,  9453,  9454,  9455,  9456,  9457,  9458,  9459,  9460
  9461,  9462,  9463,  9464,  9465,  9466,  9467,  9468,  9469,  9470,  9471,  9472,  9473,  9474,  9475,  9476
  9477,  9478,  9479,  9480,  9481,  9482,  9483,  9484,  9485,  9486,  9487,  9488,  9489,  9490,  9491,  9492
  9493,  9494,  9495,  9496,  9497,  9498,  9499,  9500,  9501,  9502,  9503,  9504,  9505,  9506,  9507,  9508
  9509,  9510,  9511,  9512,  9513,  9514,  9515,  9516,  9517,  9518,  9519,  9520,  9521,  9522,  9523,  9524
  9525,  9526,  9527,  9528,  9529,  9530,  9531,  9532,  9533,  9534,  9535,  9536,  9537,  9538,  9539,  9540
  9541,  9542,  9543,  9544,  9545,  9546,  9547,  9548,  9549,  9550,  9551,  9552,  9553,  9554,  9555,  9556
  9557,  9558,  9559,  9560,  9561,  9562,  9563,  9564,  9565,  9566,  9567,  9568,  9569,  9570,  9571,  9572
  9573,  9574,  9575,  9576,  9577,  9578,  9579,  9580,  9581,  9582,  9583,  9584,  9585,  9586,  9587,  9588
  9589,  9590,  9591,  9592,  9593,  9594,  9595,  9596,  9597,  9598,  9599,  9600,  9601,  9602,  9603,  9604
  9605,  9606,  9607,  9608,  9609,  9610,  9611,  9612,  9613,  9614,  9615,  9616,  9617,  9618,  9619,  9620
** ... 46 like lines cut
*Nset, nset=_PickedSet133, internal
    9,   10,   11,   12,   13,   17,  119,  120,  121,  122,  123,  124,  125,  126,  127,  128
  129,  130,  131,  132,  133,  134,  135,  136,  137,  138,  139,  140,  141,  142,  171,  172
  173,  174,  175,  176,  177,  178,  179,  180,  181, 1722, 1723, 1724, 1725, 1726, 1727, 1728
 1729, 1730, 1731, 1732
*Elset, elset=_PickedSet133, internal, generate
 145,  156,    1
*Nset, nset=_PickedSet137, internal
    9,   10,   11,   12,   13,   17,  119,  120,  121,  122,  123,  124,  125,  126,  127,  128
  129,  130,  131,  132,  133,  134,  135,  136,  137,  138,  139,  140,  141,  142,  171,  172
  173,  174,  175,  176,  177,  178,  179,  180,  181, 1722, 1723, 1724, 1725, 1726, 1727, 1728
 1729, 1730, 1731, 1732
*Elset, elset=_PickedSet137, internal, generate
 145,  156,    1
*Nset, nset=_PickedSet138, internal
    9,   10,   11,   12,   13,   17,  119,  120,  121,  122,  123,  124,  125,  126,  127,  128
  129,  130,  131,  132,  133,  134,  135,  136,  137,  138,  139,  140,  141,  142,  171,  172
  173,  174,  175,  176,  177,  178,  179,  180,  181, 1722, 1723, 1724, 1725, 1726, 1727, 1728
 1729, 1730, 1731, 1732
*Elset, elset=_PickedSet138, internal, generate
 145,  156,    1
*Nset, nset=_PickedSet139, internal
     9,    11,    13,    17,    28,    29,    49,    50,   131,   132,   133,   134,   135,   136,   137,   138
   139,   140,   141,   171,   172,   173,   174,   175,   176,   177,   178,   179,   180,   181,   365,   366
   367,   368,   369,   370,   371,   372,   373,   374,   375,  1114,  1115,  1116,  1117,  1118,  1119,  1120
  1121,  1122,  1123,  1124,  1436,  1437,  1438,  1439,  1440,  1441,  1442,  1443,  1444,  1445,  1446,  1447
  1448,  1449,  1450,  1451,  1452,  1453,  1472,  1473,  1474,  1475,  1476,  1477,  1478,  1479,  1480,  1481
  1482,  1483,  1484,  1485,  1486,  1487,  1488,  1489,  1580,  1581,  1582,  1583,  1584,  1585,  1586,  1587
  1588,  1589,  1590,  1591,  1592,  1593,  1594,  1595,  1596,  1597,  1598,  1599,  1600,  1601,  1602,  1603
  1604,  1605,  1606,  1607,  1608,  1609,  1610,  1611,  1612,  1613,  1614,  1615,  9386,  9387,  9388,  9389
  9390,  9391,  9392,  9393,  9394,  9395,  9396,  9397,  9398,  9399,  9400,  9401,  9402,  9403,  9404,  9405
  9406,  9407,  9408,  9409,  9410,  9411,  9412,  9413,  9414,  9415,  9416,  9417,  9418,  9419,  9420,  9421
  9422,  9423,  9424,  9425,  9426,  9427,  9428,  9429,  9430,  9431,  9432,  9433,  9434,  9435,  9436,  9437
  9438,  9439,  9440,  9441,  9442,  9443,  9444,  9445,  9446,  9447,  9448,  9449,  9450,  9451,  9452,  9453
  9454,  9455,  9456,  9457,  9458,  9459,  9460,  9461,  9462,  9463,  9464,  9465,  9466,  9467,  9468,  9469
  9470,  9471,  9472,  9473,  9474,  9475,  9476,  9477,  9478,  9479,  9480,  9481,  9482,  9483,  9484,  9485
  9486,  9487,  9488,  9489,  9490,  9491,  9492,  9493,  9494,  9495,  9496,  9497,  9498,  9499,  9500,  9501
  9502,  9503,  9504,  9505,  9506,  9507,  9508,  9509,  9510,  9511,  9512,  9513,  9514,  9515,  9516,  9517
  9518,  9519,  9520,  9521,  9522,  9523,  9524,  9525,  9526,  9527,  9528,  9529,  9530,  9531,  9532,  9533
  9534,  9535,  9536,  9537,  9538,  9539,  9540,  9541,  9542,  9543,  9544,  9545,  9546,  9547,  9548,  9549
  9550,  9551,  9552,  9553,  9554,  9555,  9556,  9557,  9558,  9559,  9560,  9561,  9562,  9563,  9564,  9565
  9566,  9567,  9568,  9569,  9570,  9571,  9572,  9573,  9574,  9575,  9576,  9577,  9578,  9579,  9580,  9581
** ... 13 like lines cut
*Elset, elset=_PickedSet139, internal, generate
 17533,  17760,      1
*Nset, nset=_PickedSet140, internal
   27,   28,   29,   30,   41,   42,   49,   50,  344,  345,  346,  347,  348,  349,  350,  351
  352,  353,  354,  355,  356,  357,  358,  359,  360,  361,  362,  363,  364,  365,  366,  367
  368,  369,  370,  371,  372,  373,  374,  375,  376,  377,  378,  379,  380,  381,  382,  383
  384,  385,  386,  387,  388,  389,  390,  391,  392,  393,  394,  395,  396,  397,  398,  399
  400,  401,  402,  403,  404,  405,  406,  407,  853,  854,  855,  856,  857,  858,  859,  860
  861,  862,  863, 1093, 1094, 1095, 1096, 1097, 1098, 1099, 1100, 1101, 1102, 1103, 1104, 1105
 1106, 1107, 1108, 1109, 1110, 1111, 1112, 1113, 1114, 1115, 1116, 1117, 1118, 1119, 1120, 1121
 1122, 1123, 1124, 1125, 1126, 1127, 1128, 1129, 1130, 1131, 1132, 1133, 1134, 1135, 1136, 1137
 1138, 1139, 1140, 1141, 1142, 1143, 1144, 1145, 2261, 2262, 2263, 2264, 2265, 2266, 2267, 2268
 2269, 2270, 2271, 2272, 2273, 2274, 2275, 2276, 2277, 2278, 2279, 2280, 2281, 2282, 2283, 2284
 2285, 2286, 2287, 2288, 2289, 2290, 2291, 2292, 2293, 2294, 2295, 2296, 2297, 2298, 2299, 2300
 2301, 2302, 2303, 2304, 2305, 2306, 2307, 2308, 2309, 2310, 2311, 2312, 2313, 2314, 2315, 2316
 2317, 2318, 2319, 2320, 2321, 2322, 2323, 2324, 2325, 2326, 2327, 2328, 2329, 2330, 2331, 2332
 2333, 2334, 2335, 2336, 2337, 2338, 2339, 2340, 2341, 2342, 2343, 2344, 2345, 2346, 2347, 2348
 2349, 2350, 2351, 2352, 2353, 2354, 2355, 2356, 2357, 2358, 2359, 2360, 2361, 2362, 2363, 2364
 2365, 2366, 2367, 2368, 2369, 2370, 2371, 2372, 2373, 2374, 2375, 2376, 2377, 2378, 2379, 2380
 2381, 2382, 2383, 2384, 2385, 2386, 2387, 2388, 2389, 2390, 2391, 2392, 2393, 2394, 2395, 2396
 2397, 2398, 2399, 2400, 2401, 2402, 2403, 2404, 2405, 2406, 2407, 2408, 2409, 2410, 2411, 2412
 2413, 2414, 2415, 2416, 2417, 2418, 2419, 2420, 2421, 2422, 2423, 2424, 2425, 2426, 2427, 2428
 2429, 2430, 2431, 2432, 2433, 2434, 2435, 2436, 2437, 2438, 2439, 2440, 2441, 2442, 2443, 2444
** ... 18 like lines cut
*Elset, elset=_PickedSet140, internal, generate
 12121,  12384,      1
*Nset, nset=_PickedSet141, internal
   27,   30,   31,   32,   41,   42,   43,   44,  397,  398,  399,  400,  401,  402,  403,  404
  405,  406,  407,  408,  409,  410,  411,  412,  413,  414,  415,  416,  417,  418,  419,  420
  421,  422,  423,  424,  425,  426,  427,  428,  429,  430,  431,  432,  433,  434,  435,  436
  437,  438,  439,  440,  441,  442,  443,  444,  445,  446,  447,  448,  449,  450,  451,  452
  453,  546,  547,  548,  549,  550,  551,  552,  553,  554,  555,  556,  557,  558,  559,  560
  561,  562,  563,  564,  565,  566,  567,  568,  569,  570,  571,  572,  573,  574,  575,  576
  577,  578,  579,  580,  581,  582,  583,  584,  585,  586,  587,  588,  589,  590,  591,  592
  593,  594,  595,  596,  597,  598,  599,  600,  601,  602,  853,  854,  855,  856,  857,  858
  859,  860,  861,  862,  863,  864,  865,  866,  867,  868,  869,  870,  871,  872,  873,  874
  875,  876,  877,  878,  879,  880,  881,  882,  883,  884,  885,  886,  887,  888,  889,  890
  891,  892,  893,  894,  895,  896,  897,  898,  899,  900,  901,  902,  903,  904,  905,  906
  907,  908,  909,  910,  911,  912,  913,  914,  915,  916,  917,  918,  919,  920,  921,  922
  923,  924,  925,  926,  927,  928,  929,  930,  931,  932,  933,  934,  935,  936,  937,  938
  939,  940,  941,  942,  943,  944,  945,  946,  947,  948,  949,  950,  951,  952,  953,  954
  955,  956,  957,  958,  959,  960,  961,  962,  963,  964,  965,  966, 3845, 3846, 3847, 3848
 3849, 3850, 3851, 3852, 3853, 3854, 3855, 3856, 3857, 3858, 3859, 3860, 3861, 3862, 3863, 3864
 3865, 3866, 3867, 3868, 3869, 3870, 3871, 3872, 3873, 3874, 3875, 3876, 3877, 3878, 3879, 3880
 3881, 3882, 3883, 3884, 3885, 3886, 3887, 3888, 3889, 3890, 3891, 3892, 3893, 3894, 3895, 3896
 3897, 3898, 3899, 3900, 3901, 3902, 3903, 3904, 3905, 3906, 3907, 3908, 3909, 3910, 3911, 3912
 3913, 3914, 3915, 3916, 3917, 3918, 3919, 3920, 3921, 3922, 3923, 3924, 3925, 3926, 3927, 3928
** ... 58 like lines cut
*Elset, elset=_PickedSet141, internal, generate
 9301,  9864,     1
*Nset, nset=_PickedSet142, internal
   27,   30,   31,   32,   41,   42,   43,   44,  397,  398,  399,  400,  401,  402,  403,  404
  405,  406,  407,  408,  409,  410,  411,  412,  413,  414,  415,  416,  417,  418,  419,  420
  421,  422,  423,  424,  425,  426,  427,  428,  429,  430,  431,  432,  433,  434,  435,  436
  437,  438,  439,  440,  441,  442,  443,  444,  445,  446,  447,  448,  449,  450,  451,  452
  453,  546,  547,  548,  549,  550,  551,  552,  553,  554,  555,  556,  557,  558,  559,  560
  561,  562,  563,  564,  565,  566,  567,  568,  569,  570,  571,  572,  573,  574,  575,  576
  577,  578,  579,  580,  581,  582,  583,  584,  585,  586,  587,  588,  589,  590,  591,  592
  593,  594,  595,  596,  597,  598,  599,  600,  601,  602,  853,  854,  855,  856,  857,  858
  859,  860,  861,  862,  863,  864,  865,  866,  867,  868,  869,  870,  871,  872,  873,  874
  875,  876,  877,  878,  879,  880,  881,  882,  883,  884,  885,  886,  887,  888,  889,  890
  891,  892,  893,  894,  895,  896,  897,  898,  899,  900,  901,  902,  903,  904,  905,  906
  907,  908,  909,  910,  911,  912,  913,  914,  915,  916,  917,  918,  919,  920,  921,  922
  923,  924,  925,  926,  927,  928,  929,  930,  931,  932,  933,  934,  935,  936,  937,  938
  939,  940,  941,  942,  943,  944,  945,  946,  947,  948,  949,  950,  951,  952,  953,  954
  955,  956,  957,  958,  959,  960,  961,  962,  963,  964,  965,  966, 3845, 3846, 3847, 3848
 3849, 3850, 3851, 3852, 3853, 3854, 3855, 3856, 3857, 3858, 3859, 3860, 3861, 3862, 3863, 3864
 3865, 3866, 3867, 3868, 3869, 3870, 3871, 3872, 3873, 3874, 3875, 3876, 3877, 3878, 3879, 3880
 3881, 3882, 3883, 3884, 3885, 3886, 3887, 3888, 3889, 3890, 3891, 3892, 3893, 3894, 3895, 3896
 3897, 3898, 3899, 3900, 3901, 3902, 3903, 3904, 3905, 3906, 3907, 3908, 3909, 3910, 3911, 3912
 3913, 3914, 3915, 3916, 3917, 3918, 3919, 3920, 3921, 3922, 3923, 3924, 3925, 3926, 3927, 3928
** ... 58 like lines cut
*Elset, elset=_PickedSet142, internal, generate
 9301,  9864,     1
*Nset, nset=_PickedSet146, internal
   27,   28,   29,   30,   41,   42,   49,   50,  344,  345,  346,  347,  348,  349,  350,  351
  352,  353,  354,  355,  356,  357,  358,  359,  360,  361,  362,  363,  364,  365,  366,  367
  368,  369,  370,  371,  372,  373,  374,  375,  376,  377,  378,  379,  380,  381,  382,  383
  384,  385,  386,  387,  388,  389,  390,  391,  392,  393,  394,  395,  396,  397,  398,  399
  400,  401,  402,  403,  404,  405,  406,  407,  853,  854,  855,  856,  857,  858,  859,  860
  861,  862,  863, 1093, 1094, 1095, 1096, 1097, 1098, 1099, 1100, 1101, 1102, 1103, 1104, 1105
 1106, 1107, 1108, 1109, 1110, 1111, 1112, 1113, 1114, 1115, 1116, 1117, 1118, 1119, 1120, 1121
 1122, 1123, 1124, 1125, 1126, 1127, 1128, 1129, 1130, 1131, 1132, 1133, 1134, 1135, 1136, 1137
 1138, 1139, 1140, 1141, 1142, 1143, 1144, 1145, 2261, 2262, 2263, 2264, 2265, 2266, 2267, 2268
 2269, 2270, 2271, 2272, 2273, 2274, 2275, 2276, 2277, 2278, 2279, 2280, 2281, 2282, 2283, 2284
 2285, 2286, 2287, 2288, 2289, 2290, 2291, 2292, 2293, 2294, 2295, 2296, 2297, 2298, 2299, 2300
 2301, 2302, 2303, 2304, 2305, 2306, 2307, 2308, 2309, 2310, 2311, 2312, 2313, 2314, 2315, 2316
 2317, 2318, 2319, 2320, 2321, 2322, 2323, 2324, 2325, 2326, 2327, 2328, 2329, 2330, 2331, 2332
 2333, 2334, 2335, 2336, 2337, 2338, 2339, 2340, 2341, 2342, 2343, 2344, 2345, 2346, 2347, 2348
 2349, 2350, 2351, 2352, 2353, 2354, 2355, 2356, 2357, 2358, 2359, 2360, 2361, 2362, 2363, 2364
 2365, 2366, 2367, 2368, 2369, 2370, 2371, 2372, 2373, 2374, 2375, 2376, 2377, 2378, 2379, 2380
 2381, 2382, 2383, 2384, 2385, 2386, 2387, 2388, 2389, 2390, 2391, 2392, 2393, 2394, 2395, 2396
 2397, 2398, 2399, 2400, 2401, 2402, 2403, 2404, 2405, 2406, 2407, 2408, 2409, 2410, 2411, 2412
 2413, 2414, 2415, 2416, 2417, 2418, 2419, 2420, 2421, 2422, 2423, 2424, 2425, 2426, 2427, 2428
 2429, 2430, 2431, 2432, 2433, 2434, 2435, 2436, 2437, 2438, 2439, 2440, 2441, 2442, 2443, 2444
** ... 18 like lines cut
*Elset, elset=_PickedSet146, internal, generate
 12121,  12384,      1
*Nset, nset=_PickedSet147, internal
   27,   30,   31,   32,   41,   42,   43,   44,  397,  398,  399,  400,  401,  402,  403,  404
  405,  406,  407,  408,  409,  410,  411,  412,  413,  414,  415,  416,  417,  418,  419,  420
  421,  422,  423,  424,  425,  426,  427,  428,  429,  430,  431,  432,  433,  434,  435,  436
  437,  438,  439,  440,  441,  442,  443,  444,  445,  446,  447,  448,  449,  450,  451,  452
  453,  546,  547,  548,  549,  550,  551,  552,  553,  554,  555,  556,  557,  558,  559,  560
  561,  562,  563,  564,  565,  566,  567,  568,  569,  570,  571,  572,  573,  574,  575,  576
  577,  578,  579,  580,  581,  582,  583,  584,  585,  586,  587,  588,  589,  590,  591,  592
  593,  594,  595,  596,  597,  598,  599,  600,  601,  602,  853,  854,  855,  856,  857,  858
  859,  860,  861,  862,  863,  864,  865,  866,  867,  868,  869,  870,  871,  872,  873,  874
  875,  876,  877,  878,  879,  880,  881,  882,  883,  884,  885,  886,  887,  888,  889,  890
  891,  892,  893,  894,  895,  896,  897,  898,  899,  900,  901,  902,  903,  904,  905,  906
  907,  908,  909,  910,  911,  912,  913,  914,  915,  916,  917,  918,  919,  920,  921,  922
  923,  924,  925,  926,  927,  928,  929,  930,  931,  932,  933,  934,  935,  936,  937,  938
  939,  940,  941,  942,  943,  944,  945,  946,  947,  948,  949,  950,  951,  952,  953,  954
  955,  956,  957,  958,  959,  960,  961,  962,  963,  964,  965,  966, 3845, 3846, 3847, 3848
 3849, 3850, 3851, 3852, 3853, 3854, 3855, 3856, 3857, 3858, 3859, 3860, 3861, 3862, 3863, 3864
 3865, 3866, 3867, 3868, 3869, 3870, 3871, 3872, 3873, 3874, 3875, 3876, 3877, 3878, 3879, 3880
 3881, 3882, 3883, 3884, 3885, 3886, 3887, 3888, 3889, 3890, 3891, 3892, 3893, 3894, 3895, 3896
 3897, 3898, 3899, 3900, 3901, 3902, 3903, 3904, 3905, 3906, 3907, 3908, 3909, 3910, 3911, 3912
 3913, 3914, 3915, 3916, 3917, 3918, 3919, 3920, 3921, 3922, 3923, 3924, 3925, 3926, 3927, 3928
** ... 58 like lines cut
*Elset, elset=_PickedSet147, internal, generate
 9301,  9864,     1
*Nset, nset=_PickedSet149, internal
     9,    11,    13,    17,    28,    29,    49,    50,   131,   132,   133,   134,   135,   136,   137,   138
   139,   140,   141,   171,   172,   173,   174,   175,   176,   177,   178,   179,   180,   181,   365,   366
   367,   368,   369,   370,   371,   372,   373,   374,   375,  1114,  1115,  1116,  1117,  1118,  1119,  1120
  1121,  1122,  1123,  1124,  1436,  1437,  1438,  1439,  1440,  1441,  1442,  1443,  1444,  1445,  1446,  1447
  1448,  1449,  1450,  1451,  1452,  1453,  1472,  1473,  1474,  1475,  1476,  1477,  1478,  1479,  1480,  1481
  1482,  1483,  1484,  1485,  1486,  1487,  1488,  1489,  1580,  1581,  1582,  1583,  1584,  1585,  1586,  1587
  1588,  1589,  1590,  1591,  1592,  1593,  1594,  1595,  1596,  1597,  1598,  1599,  1600,  1601,  1602,  1603
  1604,  1605,  1606,  1607,  1608,  1609,  1610,  1611,  1612,  1613,  1614,  1615,  9386,  9387,  9388,  9389
  9390,  9391,  9392,  9393,  9394,  9395,  9396,  9397,  9398,  9399,  9400,  9401,  9402,  9403,  9404,  9405
  9406,  9407,  9408,  9409,  9410,  9411,  9412,  9413,  9414,  9415,  9416,  9417,  9418,  9419,  9420,  9421
  9422,  9423,  9424,  9425,  9426,  9427,  9428,  9429,  9430,  9431,  9432,  9433,  9434,  9435,  9436,  9437
  9438,  9439,  9440,  9441,  9442,  9443,  9444,  9445,  9446,  9447,  9448,  9449,  9450,  9451,  9452,  9453
  9454,  9455,  9456,  9457,  9458,  9459,  9460,  9461,  9462,  9463,  9464,  9465,  9466,  9467,  9468,  9469
  9470,  9471,  9472,  9473,  9474,  9475,  9476,  9477,  9478,  9479,  9480,  9481,  9482,  9483,  9484,  9485
  9486,  9487,  9488,  9489,  9490,  9491,  9492,  9493,  9494,  9495,  9496,  9497,  9498,  9499,  9500,  9501
  9502,  9503,  9504,  9505,  9506,  9507,  9508,  9509,  9510,  9511,  9512,  9513,  9514,  9515,  9516,  9517
  9518,  9519,  9520,  9521,  9522,  9523,  9524,  9525,  9526,  9527,  9528,  9529,  9530,  9531,  9532,  9533
  9534,  9535,  9536,  9537,  9538,  9539,  9540,  9541,  9542,  9543,  9544,  9545,  9546,  9547,  9548,  9549
  9550,  9551,  9552,  9553,  9554,  9555,  9556,  9557,  9558,  9559,  9560,  9561,  9562,  9563,  9564,  9565
  9566,  9567,  9568,  9569,  9570,  9571,  9572,  9573,  9574,  9575,  9576,  9577,  9578,  9579,  9580,  9581
** ... 13 like lines cut
*Elset, elset=_PickedSet149, internal, generate
 17533,  17760,      1
** Section: outer skin
*Solid Section, elset=_PickedSet129, material="outer skin"
1.,
** Section: CohesiveSectionFaceFace
*Cohesive Section, elset=_PickedSet48, material=CohesiveMatFaceFace, response=TRACTION SEPARATION, thickness=GEOMETRY
, 1.
** Section: inner skin
*Solid Section, elset=_PickedSet16, material="inner skin"
1.,
*Orientation, name=Ori-1
1., 0., 0., 0., 1., 0.
3, 0.
** Section: inner skin
*Solid Section, elset=_PickedSet138, orientation=Ori-1, material="inner skin"
1.,
** Section: CohesiveSectionFaceFace
*Cohesive Section, elset=_PickedSet49, material=CohesiveMatFaceFace, response=TRACTION SEPARATION, thickness=GEOMETRY
, 1.
** Section: core
*Solid Section, elset=_PickedSet130, orientation=Ori-1, material=core
1.,
** Section: CohesiveSectionFaceFace
*Cohesive Section, elset=_PickedSet131, material=CohesiveMatFaceFace, response=TRACTION SEPARATION, thickness=GEOMETRY
, 1.
*Orientation, name=Ori-4
0.999999999999823, -5.95618790920243e-07,           0.,           0.,           0.,          -1.
3, 0.
** Section: CohesiveSectionFaceFace
*Cohesive Section, elset=_PickedSet141, orientation=Ori-4, material=CohesiveMatFaceFace, response=TRACTION SEPARATION, 
thickness=GEOMETRY
, 1.
*Orientation, name=Ori-3
0.999999999999823, -5.95618790920243e-07,           0.,           0.,           0.,          -1.
3, 0.
** Section: CohesiveSectionFaceFace
*Cohesive Section, elset=_PickedSet140, orientation=Ori-3, material=CohesiveMatFaceFace, response=TRACTION SEPARATION, 
thickness=GEOMETRY
, 1.
** Section: CohesiveSectionFaceFace
*Cohesive Section, elset=_PickedSet47, material=CohesiveMatFaceFace, response=TRACTION SEPARATION, thickness=GEOMETRY
, 1.
*Orientation, name=Ori-5
1., 0., 0., 0., 1., 0.
1, 0.
** Section: CohesiveSectionFaceFace
*Cohesive Section, elset=_PickedSet139, orientation=Ori-5, material=CohesiveMatFaceFace, response=TRACTION SEPARATION, 
thickness=GEOMETRY
, 1.
*End Instance
**  
*Nset, nset=_PickedSet25, internal, instance=Part-2-1
   39,   40,   59,   60,  796,  797,  798,  799,  800,  801,  802,  803,  804,  805,  806, 1353
 1354, 1355, 1356, 1357, 1358, 1359, 1360, 1361, 1362, 1363
*Elset, elset=_PickedSet25, internal, instance=Part-2-1
  9289,  9290,  9291,  9292,  9293,  9294,  9295,  9296,  9297,  9298,  9299,  9300, 14800, 14816, 14832, 14848
 14864, 14880, 14896, 14912, 14928, 14944, 14960, 14976
*Nset, nset=_PickedSet26, internal, instance=Part-2-1
  45,  46, 979, 980, 981, 982, 983, 984, 985, 986, 987, 988, 989
*Elset, elset=_PickedSet26, internal, instance=Part-2-1
 11557, 11558, 11559, 11560, 11561, 11562, 11563, 11564, 11565, 11566, 11567, 11568, 13198, 13220, 13242, 13264
 13286, 13308, 13330, 13352, 13374, 13396, 13418, 13440
*Nset, nset=_PickedSet27, internal, instance=Part-2-1
     9,    11,    25,    26,    28,    29,   131,   132,   133,   134,   135,   136,   137,   138,   139,   140
   141,   284,   285,   286,   287,   288,   289,   290,   291,   292,   293,   294,   316,   317,   318,   319
   320,   321,   322,   323,   324,   325,   326,   327,   328,   329,   365,   366,   367,   368,   369,   370
   371,   372,   373,   374,   375,  1436,  1437,  1438,  1439,  1440,  1441,  1442,  1443,  1444,  1445,  1446
  1447,  1448,  1449,  1450,  1451,  1452,  1453,  1454,  1455,  1456,  1457,  1458,  1459,  1460,  1461,  1462
  1463,  1464,  1465,  1466,  1467,  1468,  1469,  1470,  1471,  1472,  1473,  1474,  1475,  1476,  1477,  1478
  1479,  1480,  1481,  1482,  1483,  1484,  1485,  1486,  1487,  1488,  1489,  1490,  1491,  1492,  1493,  1494
  1495,  1496,  1497,  1498,  1499,  1500,  1501,  1502,  1503,  1504,  1505,  1506,  1507,  2492,  2493,  2494
  2495,  2496,  2497,  2498,  2499,  2500,  2501,  2502,  2503,  2504,  2505,  2506,  2507,  2508,  2509,  2510
  2511,  2512,  2513,  2514,  2515,  2516,  2517,  2518,  2519,  2520,  2521,  2522,  2523,  2524,  2525,  2526
  2527,  2528,  2529,  2530,  2531,  2532,  2533,  2534,  2535,  2536,  2537,  2538,  2539,  2540,  2541,  2542
  2543,  2544,  2545,  2546,  2547,  2548,  2549,  2550,  2551,  2552,  2553,  2554,  2555,  2556,  2557,  2558
  2559,  2560,  2561,  2562,  2563,  2564,  2565,  2566,  2567,  2568,  9090,  9091,  9092,  9093,  9094,  9095
  9096,  9097,  9098,  9099,  9100,  9101,  9102,  9103,  9104,  9105,  9106,  9107,  9108,  9109,  9110,  9111
  9112,  9113,  9114,  9115,  9116,  9117,  9118,  9119,  9120,  9121,  9122,  9123,  9124,  9125,  9126,  9127
  9128,  9129,  9130,  9131,  9132,  9133,  9134,  9135,  9136,  9137,  9138,  9139,  9140,  9141,  9142,  9143
  9144,  9145,  9146,  9147,  9148,  9149,  9150,  9151,  9152,  9153,  9154,  9155,  9156,  9157,  9158,  9159
  9160,  9161,  9162,  9163,  9164,  9165,  9166,  9167,  9168,  9169,  9170,  9171,  9172,  9173,  9174,  9175
  9176,  9177,  9178,  9179,  9180,  9181,  9182,  9183,  9184,  9185,  9186,  9187,  9188,  9189,  9190,  9191
  9192,  9193,  9194,  9195,  9196,  9197,  9198,  9199,  9200,  9201,  9202,  9203,  9204,  9205,  9206,  9207
** ... 58 like lines cut
*Elset, elset=_PickedSet27, internal, instance=Part-2-1, generate
 15769,  16620,      1
*End Assembly
** 
** MATERIALS
** 
*Material, name=CohesiveMatFaceFace
*Damage Initiation, criterion=MAXS
 6e+07, 5e+07, 5e+07
*Damage Evolution, type=DISPLACEMENT
 0.001,
*Elastic, type=TRACTION
 6.9e+12, 6.9e+12, 6.9e+12
*Material, name=core
*Elastic, type=ENGINEERING CONSTANTS
 1.25e+08, 1.25e+08, 1.25e+08,      0.3,      0.3,      0.3,  3.8e+07,  3.8e+07
  3.8e+07,
*Material, name="inner skin"
*Elastic
 1.1871e+07, 0.3
*Material, name="outer skin"
*Elastic
 1.0229e+07, 0.3
** ----------------------------------------------------------------
** 
** STEP: Step-1
** 
*Step, name=Step-1, nlgeom=YES, inc=1000
*Static, stabilize=0.002, allsdtol=0.05, continue=NO
0.001, 1., 1e-09, 0.01
** 
** BOUNDARY CONDITIONS
** 
** Name: BC-1 Type: Displacement/Rotation
*Boundary
_PickedSet25, 2, 2
_PickedSet25, 4, 4
_PickedSet25, 5, 5
** Name: BC-2 Type: Displacement/Rotation
*Boundary
_PickedSet26, 2, 2, -0.02
** 
** OUTPUT REQUESTS
** 
*Restart, write, frequency=0
** 
** FIELD OUTPUT: F-Output-1
** 
*Output, field
*Node Output
RF, U
*Element Output, directions=YES
EE, NFORC, PE, S, PEEQ
** 
** HISTORY OUTPUT: H-Output-1
** 
*Output, history, variable=PRESELECT
*End Step
